1

   Abaqus 2020                                  Date 05-May-2022   Time 05:41:31
   For use by Supplied by Team-SolidSQUAD under license from Dassault Systemes or its subsidiary.

                                                                                 
                                                                                 
 STEP    1     INCREMENT     1     STEP TIME    0.00    


                        S T E P       1     S T A T I C   A N A L Y S I S


                                                                                          

     AUTOMATIC TIME CONTROL WITH -
          A SUGGESTED INITIAL TIME INCREMENT OF                1.000E-03
          AND A TOTAL TIME PERIOD OF                            1.00    
          THE MINIMUM TIME INCREMENT ALLOWED IS                1.000E-07
          THE MAXIMUM TIME INCREMENT ALLOWED IS                0.100    

     LINEAR EQUATION SOLVER TYPE         DIRECT SPARSE

 CONVERGENCE TOLERANCE PARAMETERS FOR FORCE    
     CRITERION FOR RESIDUAL FORCE     FOR A NONLINEAR PROBLEM          5.000E-03
     CRITERION FOR DISP.    CORRECTION IN A NONLINEAR PROBLEM          1.000E-02
     INITIAL VALUE OF TIME AVERAGE FORCE                               1.000E-02
     AVERAGE FORCE     IS TIME AVERAGE FORCE    
     ALTERNATE CRIT. FOR RESIDUAL FORCE     FOR A NONLINEAR PROBLEM    2.000E-02
     CRITERION FOR ZERO FORCE     RELATIVE TO TIME AVRG. FORCE         1.000E-05
     CRITERION FOR RESIDUAL FORCE     WHEN THERE IS ZERO FLUX          1.000E-05
     CRITERION FOR DISP.    CORRECTION WHEN THERE IS ZERO FLUX         1.000E-03
     CRITERION FOR RESIDUAL FORCE     FOR A LINEAR INCREMENT           1.000E-08
     FIELD CONVERSION RATIO                                             1.00    
     CRITERION FOR ZERO FORCE     REL. TO TIME AVRG. MAX. FORCE        1.000E-05
     CRITERION FOR ZERO DISP.    RELATIVE TO CHARACTERISTIC LENGTH     1.000E-08

 CONVERGENCE TOLERANCE PARAMETERS FOR MOMENT   
     CRITERION FOR RESIDUAL MOMENT    FOR A NONLINEAR PROBLEM          5.000E-03
     CRITERION FOR ROTATION CORRECTION IN A NONLINEAR PROBLEM          1.000E-02
     INITIAL VALUE OF TIME AVERAGE MOMENT                              1.000E-02
     AVERAGE MOMENT    IS TIME AVERAGE MOMENT   
     ALTERNATE CRIT. FOR RESIDUAL MOMENT    FOR A NONLINEAR PROBLEM    2.000E-02
     CRITERION FOR ZERO MOMENT    RELATIVE TO TIME AVRG. MOMENT        1.000E-05
     CRITERION FOR RESIDUAL MOMENT    WHEN THERE IS ZERO FLUX          1.000E-05
     CRITERION FOR ROTATION CORRECTION WHEN THERE IS ZERO FLUX         1.000E-03
     CRITERION FOR RESIDUAL MOMENT    FOR A LINEAR INCREMENT           1.000E-08
     FIELD CONVERSION RATIO                                             1.00    
     CRITERION FOR ZERO MOMENT    REL. TO TIME AVRG. MAX. MOMENT       1.000E-05

     VOLUMETRIC STRAIN COMPATIBILITY TOLERANCE FOR HYBRID SOLIDS       1.000E-05
     AXIAL STRAIN COMPATIBILITY TOLERANCE FOR HYBRID BEAMS             1.000E-05
     TRANS. SHEAR STRAIN COMPATIBILITY TOLERANCE FOR HYBRID BEAMS      1.000E-05
     SOFT CONTACT CONSTRAINT COMPATIBILITY TOLERANCE FOR P>P0          5.000E-03
     SOFT CONTACT CONSTRAINT COMPATIBILITY TOLERANCE FOR P=0.0         0.100    
     CONTACT FORCE ERROR TOLERANCE FOR CONVERT SDI=YES                 1.00    
     DISPLACEMENT COMPATIBILITY TOLERANCE FOR DCOUP ELEMENTS           1.000E-05
     ROTATION COMPATIBILITY TOLERANCE FOR DCOUP ELEMENTS               1.000E-05

 EQUILIBRIUM WILL BE CHECKED FOR SEVERE DISCONTINUITY ITERATIONS

 TIME INCREMENTATION CONTROL PARAMETERS:
     FIRST EQUILIBRIUM ITERATION FOR CONSECUTIVE DIVERGENCE CHECK              4
     EQUILIBRIUM ITERATION AT WHICH LOG. CONVERGENCE RATE CHECK BEGINS         8
     EQUILIBRIUM ITERATION AFTER WHICH ALTERNATE RESIDUAL IS USED              9
     MAXIMUM EQUILIBRIUM ITERATIONS ALLOWED                                   16
     EQUILIBRIUM ITERATION COUNT FOR CUT-BACK IN NEXT INCREMENT               10
     MAXIMUM EQUILIB. ITERS IN TWO INCREMENTS FOR TIME INCREMENT INCREASE      4
     MAXIMUM ITERATIONS FOR SEVERE DISCONTINUITIES                            50
     MAXIMUM ATTEMPTS ALLOWED IN AN INCREMENT                                  5
     MAXIMUM DISCON. ITERS IN TWO INCREMENTS FOR TIME INCREMENT INCREASE      50
     MAXIMUM CONTACT AUGMENTATIONS FOR *SURFACE BEHAVIOR,AUGMENTED LAGRANGE   50
     CUT-BACK FACTOR AFTER DIVERGENCE                                 0.2500    
     CUT-BACK FACTOR FOR TOO SLOW CONVERGENCE                         0.5000    
     CUT-BACK FACTOR AFTER TOO MANY EQUILIBRIUM ITERATIONS            0.7500    
     CUT-BACK FACTOR AFTER TOO MANY SEVERE DISCONTINUITY ITERATIONS   0.2500    
     CUT-BACK FACTOR AFTER PROBLEMS IN ELEMENT ASSEMBLY               0.2500    
     INCREASE FACTOR AFTER TWO INCREMENTS THAT CONVERGE QUICKLY        1.500    
     MAX. TIME INCREMENT INCREASE FACTOR ALLOWED                       1.500    
     MAX. TIME INCREMENT INCREASE FACTOR ALLOWED (DYNAMICS)            1.250    
     MAX. TIME INCREMENT INCREASE FACTOR ALLOWED (DIFFUSION)           2.000    
     MINIMUM TIME INCREMENT RATIO FOR EXTRAPOLATION TO OCCUR          0.1000    
     MAX. RATIO OF TIME INCREMENT TO STABILITY LIMIT                   1.000    
     FRACTION OF STABILITY LIMIT FOR NEW TIME INCREMENT               0.9500    
     TIME INCREMENT INCREASE FACTOR BEFORE A TIME POINT                1.000    
     GLOBAL STABILIZATION CONTROL IS NOT USED

          PRINT OF INCREMENT NUMBER, TIME, ETC., EVERY    1  INCREMENTS

 LINE SEARCH TOLERANCE PARAMETERS:
     MAXIMUM NUMBER OF ZERO-FINDING ITERATIONS                                 0
     MAXIMUM CORRECTION SCALE FACTOR                                    1.00    
     MINIMUM CORRECTION SCALE FACTOR                                   1.000E-04
     RESIDUAL REDUCTION FACTOR TO END LINE SEARCHING                   0.250    
     RATIO OF NEW TO OLD SCALE FACTORS TO END LINE SEARCHING           0.100    

          THE QUASI-NEWTON SOLUTION TECHNIQUE WILL BE USED
          THE MAXIMUM NUMBER OF ITERATIONS ALLOWED BEFORE
          REFORMING THE KERNEL MATRIX IS                           8

     THE MAXIMUM NUMBER OF INCREMENTS IN THIS STEP IS                    1000

          LARGE DISPLACEMENT THEORY WILL BE USED

     LINEAR EXTRAPOLATION WILL BE USED

     CHARACTERISTIC ELEMENT LENGTH     8.307E-03

     DETAILS REGARDING ACTUAL SOLUTION WAVEFRONT REQUESTED

     DETAILED OUTPUT OF DIAGNOSTICS TO DATABASE REQUESTED

     PRINT OF INCREMENT NUMBER, TIME, ETC., TO THE MESSAGE FILE EVERY     1  INCREMENTS

     ELEMENT OPERATIONS WILL BE CARRIED OUT IN PARALLEL USING   5 PROCESSORS

     PARALLEL CONTACT TRACKING ENABLED


     COLLECTING MODEL CONSTRAINT INFORMATION FOR OVERCONSTRAINT CHECKS

     COLLECTING STEP CONSTRAINT INFORMATION FOR OVERCONSTRAINT CHECKS


  INCREMENT     1 STARTS. ATTEMPT NUMBER  1, TIME INCREMENT  1.000E-03
 
     INITIAL ELEMENT LOAD BALANCE
            PROCESS    1   THREAD     NUMBER OF ELEMENTS
                              1            2986
                              2            3328
                              3            3328
                              4            2560
                              5            3069

 ==> quasi-Newton: performing full factorization

 ***WARNING: THERE ARE 4 UNCONNECTED REGIONS IN THE MODEL.

 ***NOTE: SFM TYPE SURFACE ELEMENTS USED TO DEFINE CONTACT SURFACES NOT PART OF 
          A RIGID BODY MAY INCREASE THE NUMBER OR UNCONNECTED REGIONS REPORTED.

  USING THE DIRECT SOLVER WITH   5 PROCESSORS

     CHECK POINT   START OF SOLVER    

  NUMBER OF EQUATIONS =     34476     NUMBER OF RHS =    1
  NUMBER OF FLOATING PT. OPERATIONS =  7.83E+08

     CHECK POINT  END OF SOLVER       

       ELAPSED USER TIME (SEC)      =  0.40000    
       ELAPSED SYSTEM TIME (SEC)    =  0.20000    
       ELAPSED TOTAL CPU TIME (SEC) =  0.60000    
       ELAPSED WALLCLOCK TIME (SEC) =          1

               CONVERGENCE CHECKS FOR EQUILIBRIUM ITERATION     1


 AVERAGE FORCE                      7.163E-07   TIME AVG. FORCE        1.20    
                                                (FROM MOMENT    FIELD)
 LARGEST RESIDUAL FORCE             4.913E-06   AT NODE        131   DOF  2
   INSTANCE: WAIST-UP-1                                                                      
 LARGEST INCREMENT OF DISP.         2.899E-05   AT NODE        499   DOF  3
   INSTANCE: WAIST-UP-1                                                                      
 LARGEST CORRECTION TO DISP.        2.899E-05   AT NODE        499   DOF  3
   INSTANCE: WAIST-UP-1                                                                      
          THERE IS ZERO FORCE     EVERYWHERE

 AVERAGE MOMENT                     3.864E-10   TIME AVG. MOMENT      1.000E-02
 LARGEST RESIDUAL MOMENT            7.023E-10   AT NODE        460   DOF  4
   INSTANCE: WAIST-UP-1                                                                      
 LARGEST INCREMENT OF ROTATION     -2.090E-03   AT NODE         90   DOF  4
   INSTANCE: WAIST-UP-1                                                                      
 LARGEST CORRECTION TO ROTATION    -2.090E-03   AT NODE         90   DOF  4
   INSTANCE: WAIST-UP-1                                                                      
          THERE IS ZERO MOMENT    EVERYWHERE
 

 ***WARNING: THERE IS ZERO MOMENT EVERYWHERE IN THE MODEL BASED ON THE DEFAULT 
             CRITERION. PLEASE CHECK THE VALUE OF THE AVERAGE MOMENT DURING THE 
             CURRENT ITERATION TO VERIFY THAT THE MOMENT IS SMALL ENOUGH TO BE 
             TREATED AS ZERO. IF NOT, PLEASE USE THE SOLUTION CONTROLS TO RESET 
             THE CRITERION FOR ZERO MOMENT.

 ITERATION SUMMARY FOR THE INCREMENT:   1 TOTAL ITERATIONS, OF WHICH
   0 ARE SEVERE DISCONTINUITY ITERATIONS AND  1 ARE EQUILIBRIUM ITERATIONS.

 TIME INCREMENT COMPLETED  1.000E-03,  FRACTION OF STEP COMPLETED  1.000E-03
 STEP TIME COMPLETED       1.000E-03,  TOTAL TIME COMPLETED        1.000E-03


  INCREMENT     2 STARTS. ATTEMPT NUMBER  1, TIME INCREMENT  1.000E-03

 ==> quasi-Newton: performing full factorization

  USING THE DIRECT SOLVER WITH   5 PROCESSORS

     CHECK POINT   START OF SOLVER    

  NUMBER OF EQUATIONS =     34476     NUMBER OF RHS =    1
  NUMBER OF FLOATING PT. OPERATIONS =  7.83E+08

     CHECK POINT  END OF SOLVER       

       ELAPSED USER TIME (SEC)      =  0.50000    
       ELAPSED SYSTEM TIME (SEC)    =   0.0000    
       ELAPSED TOTAL CPU TIME (SEC) =  0.50000    
       ELAPSED WALLCLOCK TIME (SEC) =          0

               CONVERGENCE CHECKS FOR EQUILIBRIUM ITERATION     1


 AVERAGE FORCE                      1.426E-06   TIME AVG. FORCE        1.20    
                                                (FROM MOMENT    FIELD)
 LARGEST RESIDUAL FORCE            -8.673E-08   AT NODE        771   DOF  3
   INSTANCE: WAIST-MIDDLE-1                                                                  
 LARGEST INCREMENT OF DISP.         2.720E-05   AT NODE        499   DOF  3
   INSTANCE: WAIST-UP-1                                                                      
 LARGEST CORRECTION TO DISP.       -1.792E-06   AT NODE        499   DOF  3
   INSTANCE: WAIST-UP-1                                                                      
          THERE IS ZERO FORCE     EVERYWHERE

 AVERAGE MOMENT                     7.630E-10   TIME AVG. MOMENT      1.000E-02
 LARGEST RESIDUAL MOMENT           -1.853E-10   AT NODE        771   DOF  4
   INSTANCE: WAIST-MIDDLE-1                                                                  
 LARGEST INCREMENT OF ROTATION     -1.951E-03   AT NODE         90   DOF  4
   INSTANCE: WAIST-UP-1                                                                      
 LARGEST CORRECTION TO ROTATION     1.406E-04   AT NODE         22   DOF  4
   INSTANCE: WAIST-UP-1                                                                      
          THERE IS ZERO MOMENT    EVERYWHERE
 

 ***WARNING: THERE IS ZERO MOMENT EVERYWHERE IN THE MODEL BASED ON THE DEFAULT 
             CRITERION. PLEASE CHECK THE VALUE OF THE AVERAGE MOMENT DURING THE 
             CURRENT ITERATION TO VERIFY THAT THE MOMENT IS SMALL ENOUGH TO BE 
             TREATED AS ZERO. IF NOT, PLEASE USE THE SOLUTION CONTROLS TO RESET 
             THE CRITERION FOR ZERO MOMENT.
          TIME INCREMENT MAY NOW INCREASE TO    1.500E-03

 ITERATION SUMMARY FOR THE INCREMENT:   1 TOTAL ITERATIONS, OF WHICH
   0 ARE SEVERE DISCONTINUITY ITERATIONS AND  1 ARE EQUILIBRIUM ITERATIONS.

 TIME INCREMENT COMPLETED  1.000E-03,  FRACTION OF STEP COMPLETED  2.000E-03
 STEP TIME COMPLETED       2.000E-03,  TOTAL TIME COMPLETED        2.000E-03


  INCREMENT     3 STARTS. ATTEMPT NUMBER  1, TIME INCREMENT  1.500E-03

 ==> quasi-Newton: performing full factorization

  USING THE DIRECT SOLVER WITH   5 PROCESSORS

     CHECK POINT   START OF SOLVER    

  NUMBER OF EQUATIONS =     34476     NUMBER OF RHS =    1
  NUMBER OF FLOATING PT. OPERATIONS =  7.83E+08

     CHECK POINT  END OF SOLVER       

       ELAPSED USER TIME (SEC)      =  0.30000    
       ELAPSED SYSTEM TIME (SEC)    =  0.10000    
       ELAPSED TOTAL CPU TIME (SEC) =  0.40000    
       ELAPSED WALLCLOCK TIME (SEC) =          0

               CONVERGENCE CHECKS FOR EQUILIBRIUM ITERATION     1


 AVERAGE FORCE                      2.490E-06   TIME AVG. FORCE        1.20    
                                                (FROM MOMENT    FIELD)
 LARGEST RESIDUAL FORCE            -1.447E-07   AT NODE        771   DOF  3
   INSTANCE: WAIST-MIDDLE-1                                                                  
 LARGEST INCREMENT OF DISP.         3.992E-05   AT NODE        499   DOF  3
   INSTANCE: WAIST-UP-1                                                                      
 LARGEST CORRECTION TO DISP.       -8.851E-07   AT NODE        499   DOF  3
   INSTANCE: WAIST-UP-1                                                                      
          THERE IS ZERO FORCE     EVERYWHERE

 AVERAGE MOMENT                     1.323E-09   TIME AVG. MOMENT      1.000E-02
 LARGEST RESIDUAL MOMENT           -3.125E-10   AT NODE        771   DOF  4
   INSTANCE: WAIST-MIDDLE-1                                                                  
 LARGEST INCREMENT OF ROTATION     -2.858E-03   AT NODE         90   DOF  4
   INSTANCE: WAIST-UP-1                                                                      
 LARGEST CORRECTION TO ROTATION     6.871E-05   AT NODE         22   DOF  4
   INSTANCE: WAIST-UP-1                                                                      
          THERE IS ZERO MOMENT    EVERYWHERE
 

 ***WARNING: THERE IS ZERO MOMENT EVERYWHERE IN THE MODEL BASED ON THE DEFAULT 
             CRITERION. PLEASE CHECK THE VALUE OF THE AVERAGE MOMENT DURING THE 
             CURRENT ITERATION TO VERIFY THAT THE MOMENT IS SMALL ENOUGH TO BE 
             TREATED AS ZERO. IF NOT, PLEASE USE THE SOLUTION CONTROLS TO RESET 
             THE CRITERION FOR ZERO MOMENT.
          TIME INCREMENT MAY NOW INCREASE TO    2.250E-03

 ITERATION SUMMARY FOR THE INCREMENT:   1 TOTAL ITERATIONS, OF WHICH
   0 ARE SEVERE DISCONTINUITY ITERATIONS AND  1 ARE EQUILIBRIUM ITERATIONS.

 TIME INCREMENT COMPLETED  1.500E-03,  FRACTION OF STEP COMPLETED  3.500E-03
 STEP TIME COMPLETED       3.500E-03,  TOTAL TIME COMPLETED        3.500E-03


  INCREMENT     4 STARTS. ATTEMPT NUMBER  1, TIME INCREMENT  2.250E-03

 ==> quasi-Newton: performing full factorization

  USING THE DIRECT SOLVER WITH   5 PROCESSORS

     CHECK POINT   START OF SOLVER    

  NUMBER OF EQUATIONS =     34476     NUMBER OF RHS =    1
  NUMBER OF FLOATING PT. OPERATIONS =  7.83E+08

     CHECK POINT  END OF SOLVER       

       ELAPSED USER TIME (SEC)      =  0.30000    
       ELAPSED SYSTEM TIME (SEC)    =  0.10000    
       ELAPSED TOTAL CPU TIME (SEC) =  0.40000    
       ELAPSED WALLCLOCK TIME (SEC) =          0

               CONVERGENCE CHECKS FOR EQUILIBRIUM ITERATION     1


 AVERAGE FORCE                      4.079E-06   TIME AVG. FORCE        1.20    
                                                (FROM MOMENT    FIELD)
 LARGEST RESIDUAL FORCE            -3.170E-07   AT NODE        771   DOF  3
   INSTANCE: WAIST-MIDDLE-1                                                                  
 LARGEST INCREMENT OF DISP.         5.664E-05   AT NODE        499   DOF  3
   INSTANCE: WAIST-UP-1                                                                      
 LARGEST CORRECTION TO DISP.       -3.236E-06   AT NODE        499   DOF  3
   INSTANCE: WAIST-UP-1                                                                      
          THERE IS ZERO FORCE     EVERYWHERE

 AVERAGE MOMENT                     2.144E-09   TIME AVG. MOMENT      1.000E-02
 LARGEST RESIDUAL MOMENT           -6.792E-10   AT NODE        771   DOF  4
   INSTANCE: WAIST-MIDDLE-1                                                                  
 LARGEST INCREMENT OF ROTATION     -4.038E-03   AT NODE         90   DOF  4
   INSTANCE: WAIST-UP-1                                                                      
 LARGEST CORRECTION TO ROTATION     2.498E-04   AT NODE         22   DOF  4
   INSTANCE: WAIST-UP-1                                                                      
          THERE IS ZERO MOMENT    EVERYWHERE
 

 ***WARNING: THERE IS ZERO MOMENT EVERYWHERE IN THE MODEL BASED ON THE DEFAULT 
             CRITERION. PLEASE CHECK THE VALUE OF THE AVERAGE MOMENT DURING THE 
             CURRENT ITERATION TO VERIFY THAT THE MOMENT IS SMALL ENOUGH TO BE 
             TREATED AS ZERO. IF NOT, PLEASE USE THE SOLUTION CONTROLS TO RESET 
             THE CRITERION FOR ZERO MOMENT.
          TIME INCREMENT MAY NOW INCREASE TO    3.375E-03

 ITERATION SUMMARY FOR THE INCREMENT:   1 TOTAL ITERATIONS, OF WHICH
   0 ARE SEVERE DISCONTINUITY ITERATIONS AND  1 ARE EQUILIBRIUM ITERATIONS.

 TIME INCREMENT COMPLETED  2.250E-03,  FRACTION OF STEP COMPLETED  5.750E-03
 STEP TIME COMPLETED       5.750E-03,  TOTAL TIME COMPLETED        5.750E-03


  INCREMENT     5 STARTS. ATTEMPT NUMBER  1, TIME INCREMENT  3.375E-03

 ==> quasi-Newton: performing full factorization

  USING THE DIRECT SOLVER WITH   5 PROCESSORS

     CHECK POINT   START OF SOLVER    

  NUMBER OF EQUATIONS =     34476     NUMBER OF RHS =    1
  NUMBER OF FLOATING PT. OPERATIONS =  7.83E+08

     CHECK POINT  END OF SOLVER       

       ELAPSED USER TIME (SEC)      =  0.40000    
       ELAPSED SYSTEM TIME (SEC)    =   0.0000    
       ELAPSED TOTAL CPU TIME (SEC) =  0.40000    
       ELAPSED WALLCLOCK TIME (SEC) =          0

               CONVERGENCE CHECKS FOR EQUILIBRIUM ITERATION     1


 AVERAGE FORCE                      6.451E-06   TIME AVG. FORCE        1.20    
                                                (FROM MOMENT    FIELD)
 LARGEST RESIDUAL FORCE            -6.580E-07   AT NODE        771   DOF  3
   INSTANCE: WAIST-MIDDLE-1                                                                  
 LARGEST INCREMENT OF DISP.         7.847E-05   AT NODE        499   DOF  3
   INSTANCE: WAIST-UP-1                                                                      
 LARGEST CORRECTION TO DISP.       -6.490E-06   AT NODE        499   DOF  3
   INSTANCE: WAIST-UP-1                                                                      
          THERE IS ZERO FORCE     EVERYWHERE

 AVERAGE MOMENT                     3.339E-09   TIME AVG. MOMENT      1.000E-02
 LARGEST RESIDUAL MOMENT           -1.398E-09   AT NODE        771   DOF  4
   INSTANCE: WAIST-MIDDLE-1                                                                  
 LARGEST INCREMENT OF ROTATION     -5.560E-03   AT NODE         90   DOF  4
   INSTANCE: WAIST-UP-1                                                                      
 LARGEST CORRECTION TO ROTATION     4.967E-04   AT NODE         90   DOF  4
   INSTANCE: WAIST-UP-1                                                                      
          THERE IS ZERO MOMENT    EVERYWHERE
 

 ***WARNING: THERE IS ZERO MOMENT EVERYWHERE IN THE MODEL BASED ON THE DEFAULT 
             CRITERION. PLEASE CHECK THE VALUE OF THE AVERAGE MOMENT DURING THE 
             CURRENT ITERATION TO VERIFY THAT THE MOMENT IS SMALL ENOUGH TO BE 
             TREATED AS ZERO. IF NOT, PLEASE USE THE SOLUTION CONTROLS TO RESET 
             THE CRITERION FOR ZERO MOMENT.
          TIME INCREMENT MAY NOW INCREASE TO    5.063E-03

 ITERATION SUMMARY FOR THE INCREMENT:   1 TOTAL ITERATIONS, OF WHICH
   0 ARE SEVERE DISCONTINUITY ITERATIONS AND  1 ARE EQUILIBRIUM ITERATIONS.

 TIME INCREMENT COMPLETED  3.375E-03,  FRACTION OF STEP COMPLETED  9.125E-03
 STEP TIME COMPLETED       9.125E-03,  TOTAL TIME COMPLETED        9.125E-03


  INCREMENT     6 STARTS. ATTEMPT NUMBER  1, TIME INCREMENT  5.063E-03

 ==> quasi-Newton: performing full factorization

  USING THE DIRECT SOLVER WITH   5 PROCESSORS

     CHECK POINT   START OF SOLVER    

  NUMBER OF EQUATIONS =     34476     NUMBER OF RHS =    1
  NUMBER OF FLOATING PT. OPERATIONS =  7.83E+08

     CHECK POINT  END OF SOLVER       

       ELAPSED USER TIME (SEC)      =  0.40000    
       ELAPSED SYSTEM TIME (SEC)    =  0.10000    
       ELAPSED TOTAL CPU TIME (SEC) =  0.50000    
       ELAPSED WALLCLOCK TIME (SEC) =          0

               CONVERGENCE CHECKS FOR EQUILIBRIUM ITERATION     1


 AVERAGE FORCE                      9.983E-06   TIME AVG. FORCE        1.20    
                                                (FROM MOMENT    FIELD)
 LARGEST RESIDUAL FORCE            -1.325E-06   AT NODE        771   DOF  3
   INSTANCE: WAIST-MIDDLE-1                                                                  
 LARGEST INCREMENT OF DISP.         1.059E-04   AT NODE        288   DOF  3
   INSTANCE: WAIST-UP-1                                                                      
 LARGEST CORRECTION TO DISP.       -1.228E-05   AT NODE        499   DOF  3
   INSTANCE: WAIST-UP-1                                                                      
          THERE IS ZERO FORCE     EVERYWHERE

 AVERAGE MOMENT                     5.058E-09   TIME AVG. MOMENT      1.000E-02
 LARGEST RESIDUAL MOMENT           -2.775E-09   AT NODE        771   DOF  4
   INSTANCE: WAIST-MIDDLE-1                                                                  
 LARGEST INCREMENT OF ROTATION     -7.411E-03   AT NODE         90   DOF  4
   INSTANCE: WAIST-UP-1                                                                      
 LARGEST CORRECTION TO ROTATION     9.293E-04   AT NODE         90   DOF  4
   INSTANCE: WAIST-UP-1                                                                      
          THERE IS ZERO MOMENT    EVERYWHERE
 

 ***WARNING: THERE IS ZERO MOMENT EVERYWHERE IN THE MODEL BASED ON THE DEFAULT 
             CRITERION. PLEASE CHECK THE VALUE OF THE AVERAGE MOMENT DURING THE 
             CURRENT ITERATION TO VERIFY THAT THE MOMENT IS SMALL ENOUGH TO BE 
             TREATED AS ZERO. IF NOT, PLEASE USE THE SOLUTION CONTROLS TO RESET 
             THE CRITERION FOR ZERO MOMENT.
          TIME INCREMENT MAY NOW INCREASE TO    7.594E-03

 ITERATION SUMMARY FOR THE INCREMENT:   1 TOTAL ITERATIONS, OF WHICH
   0 ARE SEVERE DISCONTINUITY ITERATIONS AND  1 ARE EQUILIBRIUM ITERATIONS.

 TIME INCREMENT COMPLETED  5.063E-03,  FRACTION OF STEP COMPLETED  1.419E-02
 STEP TIME COMPLETED       1.419E-02,  TOTAL TIME COMPLETED        1.419E-02


  INCREMENT     7 STARTS. ATTEMPT NUMBER  1, TIME INCREMENT  7.594E-03

 ==> quasi-Newton: performing full factorization

  USING THE DIRECT SOLVER WITH   5 PROCESSORS

     CHECK POINT   START OF SOLVER    

  NUMBER OF EQUATIONS =     34476     NUMBER OF RHS =    1
  NUMBER OF FLOATING PT. OPERATIONS =  7.83E+08

     CHECK POINT  END OF SOLVER       

       ELAPSED USER TIME (SEC)      =  0.40000    
       ELAPSED SYSTEM TIME (SEC)    =  0.10000    
       ELAPSED TOTAL CPU TIME (SEC) =  0.50000    
       ELAPSED WALLCLOCK TIME (SEC) =          0

               CONVERGENCE CHECKS FOR EQUILIBRIUM ITERATION     1


 AVERAGE FORCE                      1.524E-05   TIME AVG. FORCE       1.524E-05
 LARGEST RESIDUAL FORCE             2.886E-06   AT NODE        131   DOF  2
   INSTANCE: WAIST-UP-1                                                                      
 LARGEST INCREMENT OF DISP.         1.388E-04   AT NODE        288   DOF  3
   INSTANCE: WAIST-UP-1                                                                      
 LARGEST CORRECTION TO DISP.       -2.165E-05   AT NODE        499   DOF  3
   INSTANCE: WAIST-UP-1                                                                      
          FORCE     EQUILIBRIUM NOT ACHIEVED WITHIN TOLERANCE.

 AVERAGE MOMENT                     7.502E-09   TIME AVG. MOMENT      1.000E-02
 LARGEST RESIDUAL MOMENT           -5.251E-09   AT NODE        771   DOF  4
   INSTANCE: WAIST-MIDDLE-1                                                                  
 LARGEST INCREMENT OF ROTATION     -9.504E-03   AT NODE         90   DOF  4
   INSTANCE: WAIST-UP-1                                                                      
 LARGEST CORRECTION TO ROTATION     1.612E-03   AT NODE         90   DOF  4
   INSTANCE: WAIST-UP-1                                                                      
          THERE IS ZERO MOMENT    EVERYWHERE
 

 ***WARNING: THERE IS ZERO MOMENT EVERYWHERE IN THE MODEL BASED ON THE DEFAULT 
             CRITERION. PLEASE CHECK THE VALUE OF THE AVERAGE MOMENT DURING THE 
             CURRENT ITERATION TO VERIFY THAT THE MOMENT IS SMALL ENOUGH TO BE 
             TREATED AS ZERO. IF NOT, PLEASE USE THE SOLUTION CONTROLS TO RESET 
             THE CRITERION FOR ZERO MOMENT.

 ==> quasi-Newton: applying BFGS update  1

  USING THE DIRECT SOLVER WITH   5 PROCESSORS

     CHECK POINT   START OF SOLVER    

  NUMBER OF EQUATIONS =     34476     NUMBER OF RHS =    1
  NUMBER OF FLOATING PT. OPERATIONS =  7.83E+08

     CHECK POINT  END OF SOLVER       

       ELAPSED USER TIME (SEC)      =  0.10000    
       ELAPSED SYSTEM TIME (SEC)    =   0.0000    
       ELAPSED TOTAL CPU TIME (SEC) =  0.10000    
       ELAPSED WALLCLOCK TIME (SEC) =          0
 ==> quasi-Newton:  skipped BFGS update  1

               CONVERGENCE CHECKS FOR EQUILIBRIUM ITERATION     2


 AVERAGE FORCE                      1.524E-05   TIME AVG. FORCE       1.524E-05
 LARGEST RESIDUAL FORCE             1.471E-07   AT NODE        460   DOF  2
   INSTANCE: WAIST-UP-1                                                                      
 LARGEST INCREMENT OF DISP.         1.386E-04   AT NODE        288   DOF  3
   INSTANCE: WAIST-UP-1                                                                      
 LARGEST CORRECTION TO DISP.       -3.628E-07   AT NODE        499   DOF  3
   INSTANCE: WAIST-UP-1                                                                      
          FORCE     EQUILIBRIUM NOT ACHIEVED WITHIN TOLERANCE.

 AVERAGE MOMENT                     7.501E-09   TIME AVG. MOMENT      1.000E-02
 LARGEST RESIDUAL MOMENT            3.463E-11   AT NODE        460   DOF  4
   INSTANCE: WAIST-UP-1                                                                      
 LARGEST INCREMENT OF ROTATION     -9.464E-03   AT NODE         90   DOF  4
   INSTANCE: WAIST-UP-1                                                                      
 LARGEST CORRECTION TO ROTATION     3.921E-05   AT NODE         90   DOF  4
   INSTANCE: WAIST-UP-1                                                                      
          THERE IS ZERO MOMENT    EVERYWHERE
 

 ***WARNING: THERE IS ZERO MOMENT EVERYWHERE IN THE MODEL BASED ON THE DEFAULT 
             CRITERION. PLEASE CHECK THE VALUE OF THE AVERAGE MOMENT DURING THE 
             CURRENT ITERATION TO VERIFY THAT THE MOMENT IS SMALL ENOUGH TO BE 
             TREATED AS ZERO. IF NOT, PLEASE USE THE SOLUTION CONTROLS TO RESET 
             THE CRITERION FOR ZERO MOMENT.

 ==> quasi-Newton: applying BFGS update  1

  USING THE DIRECT SOLVER WITH   5 PROCESSORS

     CHECK POINT   START OF SOLVER    

  NUMBER OF EQUATIONS =     34476     NUMBER OF RHS =    1
  NUMBER OF FLOATING PT. OPERATIONS =  7.83E+08

     CHECK POINT  END OF SOLVER       

       ELAPSED USER TIME (SEC)      =  0.10000    
       ELAPSED SYSTEM TIME (SEC)    =   0.0000    
       ELAPSED TOTAL CPU TIME (SEC) =  0.10000    
       ELAPSED WALLCLOCK TIME (SEC) =          1

               CONVERGENCE CHECKS FOR EQUILIBRIUM ITERATION     3


 AVERAGE FORCE                      1.524E-05   TIME AVG. FORCE       1.524E-05
 LARGEST RESIDUAL FORCE             2.405E-10   AT NODE        460   DOF  2
   INSTANCE: WAIST-UP-1                                                                      
 LARGEST INCREMENT OF DISP.         1.385E-04   AT NODE        288   DOF  3
   INSTANCE: WAIST-UP-1                                                                      
 LARGEST CORRECTION TO DISP.       -1.247E-08   AT NODE        532   DOF  3
   INSTANCE: WAIST-UP-1                                                                      
          THE FORCE     EQUILIBRIUM EQUATIONS HAVE CONVERGED

 AVERAGE MOMENT                     7.501E-09   TIME AVG. MOMENT      1.000E-02
 LARGEST RESIDUAL MOMENT            5.151E-13   AT NODE        771   DOF  4
   INSTANCE: WAIST-MIDDLE-1                                                                  
 LARGEST INCREMENT OF ROTATION     -9.463E-03   AT NODE         90   DOF  4
   INSTANCE: WAIST-UP-1                                                                      
 LARGEST CORRECTION TO ROTATION     1.391E-06   AT NODE         90   DOF  4
   INSTANCE: WAIST-UP-1                                                                      
          THERE IS ZERO MOMENT    EVERYWHERE
 

 ***WARNING: THERE IS ZERO MOMENT EVERYWHERE IN THE MODEL BASED ON THE DEFAULT 
             CRITERION. PLEASE CHECK THE VALUE OF THE AVERAGE MOMENT DURING THE 
             CURRENT ITERATION TO VERIFY THAT THE MOMENT IS SMALL ENOUGH TO BE 
             TREATED AS ZERO. IF NOT, PLEASE USE THE SOLUTION CONTROLS TO RESET 
             THE CRITERION FOR ZERO MOMENT.
          TIME INCREMENT MAY NOW INCREASE TO    1.139E-02

 ITERATION SUMMARY FOR THE INCREMENT:   3 TOTAL ITERATIONS, OF WHICH
   0 ARE SEVERE DISCONTINUITY ITERATIONS AND  3 ARE EQUILIBRIUM ITERATIONS.

 TIME INCREMENT COMPLETED  7.594E-03,  FRACTION OF STEP COMPLETED  2.178E-02
 STEP TIME COMPLETED       2.178E-02,  TOTAL TIME COMPLETED        2.178E-02


  INCREMENT     8 STARTS. ATTEMPT NUMBER  1, TIME INCREMENT  1.139E-02

 ==> quasi-Newton: performing full factorization

  USING THE DIRECT SOLVER WITH   5 PROCESSORS

     CHECK POINT   START OF SOLVER    

  NUMBER OF EQUATIONS =     34476     NUMBER OF RHS =    1
  NUMBER OF FLOATING PT. OPERATIONS =  7.83E+08

     CHECK POINT  END OF SOLVER       

       ELAPSED USER TIME (SEC)      =  0.40000    
       ELAPSED SYSTEM TIME (SEC)    =  0.10000    
       ELAPSED TOTAL CPU TIME (SEC) =  0.50000    
       ELAPSED WALLCLOCK TIME (SEC) =          0

               CONVERGENCE CHECKS FOR EQUILIBRIUM ITERATION     1


 AVERAGE FORCE                      6.114E-05   TIME AVG. FORCE       3.819E-05
 LARGEST RESIDUAL FORCE             6.848E-06   AT NODE        131   DOF  2
   INSTANCE: WAIST-UP-1                                                                      
 LARGEST INCREMENT OF DISP.         1.757E-04   AT NODE        288   DOF  3
   INSTANCE: WAIST-UP-1                                                                      
 LARGEST CORRECTION TO DISP.       -3.417E-05   AT NODE        499   DOF  3
   INSTANCE: WAIST-UP-1                                                                      
          FORCE     EQUILIBRIUM NOT ACHIEVED WITHIN TOLERANCE.

 AVERAGE MOMENT                     1.093E-08   TIME AVG. MOMENT      1.000E-02
 LARGEST RESIDUAL MOMENT           -9.332E-09   AT NODE        771   DOF  4
   INSTANCE: WAIST-MIDDLE-1                                                                  
 LARGEST INCREMENT OF ROTATION     -1.173E-02   AT NODE         90   DOF  4
   INSTANCE: WAIST-UP-1                                                                      
 LARGEST CORRECTION TO ROTATION     2.461E-03   AT NODE         90   DOF  4
   INSTANCE: WAIST-UP-1                                                                      
          THERE IS ZERO MOMENT    EVERYWHERE
 

 ***WARNING: THERE IS ZERO MOMENT EVERYWHERE IN THE MODEL BASED ON THE DEFAULT 
             CRITERION. PLEASE CHECK THE VALUE OF THE AVERAGE MOMENT DURING THE 
             CURRENT ITERATION TO VERIFY THAT THE MOMENT IS SMALL ENOUGH TO BE 
             TREATED AS ZERO. IF NOT, PLEASE USE THE SOLUTION CONTROLS TO RESET 
             THE CRITERION FOR ZERO MOMENT.

 ==> quasi-Newton: applying BFGS update  1

  USING THE DIRECT SOLVER WITH   5 PROCESSORS

     CHECK POINT   START OF SOLVER    

  NUMBER OF EQUATIONS =     34476     NUMBER OF RHS =    1
  NUMBER OF FLOATING PT. OPERATIONS =  7.83E+08

     CHECK POINT  END OF SOLVER       

       ELAPSED USER TIME (SEC)      =  0.10000    
       ELAPSED SYSTEM TIME (SEC)    =   0.0000    
       ELAPSED TOTAL CPU TIME (SEC) =  0.10000    
       ELAPSED WALLCLOCK TIME (SEC) =          0
 ==> quasi-Newton:  skipped BFGS update  1

               CONVERGENCE CHECKS FOR EQUILIBRIUM ITERATION     2


 AVERAGE FORCE                      6.113E-05   TIME AVG. FORCE       3.818E-05
 LARGEST RESIDUAL FORCE             4.881E-07   AT NODE        460   DOF  2
   INSTANCE: WAIST-UP-1                                                                      
 LARGEST INCREMENT OF DISP.         1.751E-04   AT NODE        288   DOF  3
   INSTANCE: WAIST-UP-1                                                                      
 LARGEST CORRECTION TO DISP.       -8.065E-07   AT NODE        499   DOF  3
   INSTANCE: WAIST-UP-1                                                                      
          FORCE     EQUILIBRIUM NOT ACHIEVED WITHIN TOLERANCE.

 AVERAGE MOMENT                     1.092E-08   TIME AVG. MOMENT      1.000E-02
 LARGEST RESIDUAL MOMENT            1.284E-10   AT NODE        460   DOF  4
   INSTANCE: WAIST-UP-1                                                                      
 LARGEST INCREMENT OF ROTATION     -1.165E-02   AT NODE         90   DOF  4
   INSTANCE: WAIST-UP-1                                                                      
 LARGEST CORRECTION TO ROTATION     8.593E-05   AT NODE         90   DOF  4
   INSTANCE: WAIST-UP-1                                                                      
          THERE IS ZERO MOMENT    EVERYWHERE
 

 ***WARNING: THERE IS ZERO MOMENT EVERYWHERE IN THE MODEL BASED ON THE DEFAULT 
             CRITERION. PLEASE CHECK THE VALUE OF THE AVERAGE MOMENT DURING THE 
             CURRENT ITERATION TO VERIFY THAT THE MOMENT IS SMALL ENOUGH TO BE 
             TREATED AS ZERO. IF NOT, PLEASE USE THE SOLUTION CONTROLS TO RESET 
             THE CRITERION FOR ZERO MOMENT.

 ==> quasi-Newton: applying BFGS update  1

  USING THE DIRECT SOLVER WITH   5 PROCESSORS

     CHECK POINT   START OF SOLVER    

  NUMBER OF EQUATIONS =     34476     NUMBER OF RHS =    1
  NUMBER OF FLOATING PT. OPERATIONS =  7.83E+08

     CHECK POINT  END OF SOLVER       

       ELAPSED USER TIME (SEC)      =  0.10000    
       ELAPSED SYSTEM TIME (SEC)    =   0.0000    
       ELAPSED TOTAL CPU TIME (SEC) =  0.10000    
       ELAPSED WALLCLOCK TIME (SEC) =          0

               CONVERGENCE CHECKS FOR EQUILIBRIUM ITERATION     3


 AVERAGE FORCE                      6.113E-05   TIME AVG. FORCE       3.818E-05
 LARGEST RESIDUAL FORCE             1.558E-09   AT NODE        460   DOF  2
   INSTANCE: WAIST-UP-1                                                                      
 LARGEST INCREMENT OF DISP.         1.750E-04   AT NODE        288   DOF  3
   INSTANCE: WAIST-UP-1                                                                      
 LARGEST CORRECTION TO DISP.       -4.028E-08   AT NODE        499   DOF  3
   INSTANCE: WAIST-UP-1                                                                      
          THE FORCE     EQUILIBRIUM EQUATIONS HAVE CONVERGED

 AVERAGE MOMENT                     1.092E-08   TIME AVG. MOMENT      1.000E-02
 LARGEST RESIDUAL MOMENT            1.445E-12   AT NODE        771   DOF  4
   INSTANCE: WAIST-MIDDLE-1                                                                  
 LARGEST INCREMENT OF ROTATION     -1.164E-02   AT NODE         90   DOF  4
   INSTANCE: WAIST-UP-1                                                                      
 LARGEST CORRECTION TO ROTATION     4.488E-06   AT NODE         90   DOF  4
   INSTANCE: WAIST-UP-1                                                                      
          THERE IS ZERO MOMENT    EVERYWHERE
 

 ***WARNING: THERE IS ZERO MOMENT EVERYWHERE IN THE MODEL BASED ON THE DEFAULT 
             CRITERION. PLEASE CHECK THE VALUE OF THE AVERAGE MOMENT DURING THE 
             CURRENT ITERATION TO VERIFY THAT THE MOMENT IS SMALL ENOUGH TO BE 
             TREATED AS ZERO. IF NOT, PLEASE USE THE SOLUTION CONTROLS TO RESET 
             THE CRITERION FOR ZERO MOMENT.
          TIME INCREMENT MAY NOW INCREASE TO    1.709E-02

 ITERATION SUMMARY FOR THE INCREMENT:   3 TOTAL ITERATIONS, OF WHICH
   0 ARE SEVERE DISCONTINUITY ITERATIONS AND  3 ARE EQUILIBRIUM ITERATIONS.

 TIME INCREMENT COMPLETED  1.139E-02,  FRACTION OF STEP COMPLETED  3.317E-02
 STEP TIME COMPLETED       3.317E-02,  TOTAL TIME COMPLETED        3.317E-02


  INCREMENT     9 STARTS. ATTEMPT NUMBER  1, TIME INCREMENT  1.709E-02

 ==> quasi-Newton: performing full factorization

  USING THE DIRECT SOLVER WITH   5 PROCESSORS

     CHECK POINT   START OF SOLVER    

  NUMBER OF EQUATIONS =     34476     NUMBER OF RHS =    1
  NUMBER OF FLOATING PT. OPERATIONS =  7.83E+08

     CHECK POINT  END OF SOLVER       

       ELAPSED USER TIME (SEC)      =  0.30000    
       ELAPSED SYSTEM TIME (SEC)    =   0.0000    
       ELAPSED TOTAL CPU TIME (SEC) =  0.30000    
       ELAPSED WALLCLOCK TIME (SEC) =          0

               CONVERGENCE CHECKS FOR EQUILIBRIUM ITERATION     1


 AVERAGE FORCE                      9.003E-05   TIME AVG. FORCE       5.546E-05
 LARGEST RESIDUAL FORCE             1.399E-05   AT NODE        131   DOF  2
   INSTANCE: WAIST-UP-1                                                                      
 LARGEST INCREMENT OF DISP.         2.145E-04   AT NODE        288   DOF  3
   INSTANCE: WAIST-UP-1                                                                      
 LARGEST CORRECTION TO DISP.       -5.020E-05   AT NODE        499   DOF  3
   INSTANCE: WAIST-UP-1                                                                      
          FORCE     EQUILIBRIUM NOT ACHIEVED WITHIN TOLERANCE.

 AVERAGE MOMENT                     1.565E-08   TIME AVG. MOMENT      1.000E-02
 LARGEST RESIDUAL MOMENT           -1.555E-08   AT NODE        771   DOF  4
   INSTANCE: WAIST-MIDDLE-1                                                                  
 LARGEST INCREMENT OF ROTATION     -1.394E-02   AT NODE         90   DOF  4
   INSTANCE: WAIST-UP-1                                                                      
 LARGEST CORRECTION TO ROTATION     3.524E-03   AT NODE         90   DOF  4
   INSTANCE: WAIST-UP-1                                                                      
          THERE IS ZERO MOMENT    EVERYWHERE
 

 ***WARNING: THERE IS ZERO MOMENT EVERYWHERE IN THE MODEL BASED ON THE DEFAULT 
             CRITERION. PLEASE CHECK THE VALUE OF THE AVERAGE MOMENT DURING THE 
             CURRENT ITERATION TO VERIFY THAT THE MOMENT IS SMALL ENOUGH TO BE 
             TREATED AS ZERO. IF NOT, PLEASE USE THE SOLUTION CONTROLS TO RESET 
             THE CRITERION FOR ZERO MOMENT.

 ==> quasi-Newton: applying BFGS update  1

  USING THE DIRECT SOLVER WITH   5 PROCESSORS

     CHECK POINT   START OF SOLVER    

  NUMBER OF EQUATIONS =     34476     NUMBER OF RHS =    1
  NUMBER OF FLOATING PT. OPERATIONS =  7.83E+08

     CHECK POINT  END OF SOLVER       

       ELAPSED USER TIME (SEC)      =  0.10000    
       ELAPSED SYSTEM TIME (SEC)    =   0.0000    
       ELAPSED TOTAL CPU TIME (SEC) =  0.10000    
       ELAPSED WALLCLOCK TIME (SEC) =          0
 ==> quasi-Newton:  skipped BFGS update  1

               CONVERGENCE CHECKS FOR EQUILIBRIUM ITERATION     2


 AVERAGE FORCE                      9.000E-05   TIME AVG. FORCE       5.546E-05
 LARGEST RESIDUAL FORCE             1.300E-06   AT NODE        460   DOF  2
   INSTANCE: WAIST-UP-1                                                                      
 LARGEST INCREMENT OF DISP.         2.132E-04   AT NODE        288   DOF  3
   INSTANCE: WAIST-UP-1                                                                      
 LARGEST CORRECTION TO DISP.       -1.531E-06   AT NODE        499   DOF  3
   INSTANCE: WAIST-UP-1                                                                      
          FORCE     EQUILIBRIUM NOT ACHIEVED WITHIN TOLERANCE.

 AVERAGE MOMENT                     1.565E-08   TIME AVG. MOMENT      1.000E-02
 LARGEST RESIDUAL MOMENT            3.846E-10   AT NODE        460   DOF  4
   INSTANCE: WAIST-UP-1                                                                      
 LARGEST INCREMENT OF ROTATION     -1.378E-02   AT NODE         90   DOF  4
   INSTANCE: WAIST-UP-1                                                                      
 LARGEST CORRECTION TO ROTATION     1.613E-04   AT NODE         90   DOF  4
   INSTANCE: WAIST-UP-1                                                                      
          THERE IS ZERO MOMENT    EVERYWHERE
 

 ***WARNING: THERE IS ZERO MOMENT EVERYWHERE IN THE MODEL BASED ON THE DEFAULT 
             CRITERION. PLEASE CHECK THE VALUE OF THE AVERAGE MOMENT DURING THE 
             CURRENT ITERATION TO VERIFY THAT THE MOMENT IS SMALL ENOUGH TO BE 
             TREATED AS ZERO. IF NOT, PLEASE USE THE SOLUTION CONTROLS TO RESET 
             THE CRITERION FOR ZERO MOMENT.

 ==> quasi-Newton: applying BFGS update  1

  USING THE DIRECT SOLVER WITH   5 PROCESSORS

     CHECK POINT   START OF SOLVER    

  NUMBER OF EQUATIONS =     34476     NUMBER OF RHS =    1
  NUMBER OF FLOATING PT. OPERATIONS =  7.83E+08

     CHECK POINT  END OF SOLVER       

       ELAPSED USER TIME (SEC)      =  0.10000    
       ELAPSED SYSTEM TIME (SEC)    =   0.0000    
       ELAPSED TOTAL CPU TIME (SEC) =  0.10000    
       ELAPSED WALLCLOCK TIME (SEC) =          1

               CONVERGENCE CHECKS FOR EQUILIBRIUM ITERATION     3


 AVERAGE FORCE                      9.000E-05   TIME AVG. FORCE       5.546E-05
 LARGEST RESIDUAL FORCE             8.221E-09   AT NODE        460   DOF  2
   INSTANCE: WAIST-UP-1                                                                      
 LARGEST INCREMENT OF DISP.         2.131E-04   AT NODE        288   DOF  3
   INSTANCE: WAIST-UP-1                                                                      
 LARGEST CORRECTION TO DISP.       -1.021E-07   AT NODE        499   DOF  3
   INSTANCE: WAIST-UP-1                                                                      
          THE FORCE     EQUILIBRIUM EQUATIONS HAVE CONVERGED

 AVERAGE MOMENT                     1.565E-08   TIME AVG. MOMENT      1.000E-02
 LARGEST RESIDUAL MOMENT            4.003E-12   AT NODE        771   DOF  4
   INSTANCE: WAIST-MIDDLE-1                                                                  
 LARGEST INCREMENT OF ROTATION     -1.377E-02   AT NODE         90   DOF  4
   INSTANCE: WAIST-UP-1                                                                      
 LARGEST CORRECTION TO ROTATION     1.139E-05   AT NODE         90   DOF  4
   INSTANCE: WAIST-UP-1                                                                      
          THERE IS ZERO MOMENT    EVERYWHERE
 

 ***WARNING: THERE IS ZERO MOMENT EVERYWHERE IN THE MODEL BASED ON THE DEFAULT 
             CRITERION. PLEASE CHECK THE VALUE OF THE AVERAGE MOMENT DURING THE 
             CURRENT ITERATION TO VERIFY THAT THE MOMENT IS SMALL ENOUGH TO BE 
             TREATED AS ZERO. IF NOT, PLEASE USE THE SOLUTION CONTROLS TO RESET 
             THE CRITERION FOR ZERO MOMENT.
          TIME INCREMENT MAY NOW INCREASE TO    2.563E-02

 ITERATION SUMMARY FOR THE INCREMENT:   3 TOTAL ITERATIONS, OF WHICH
   0 ARE SEVERE DISCONTINUITY ITERATIONS AND  3 ARE EQUILIBRIUM ITERATIONS.

 TIME INCREMENT COMPLETED  1.709E-02,  FRACTION OF STEP COMPLETED  5.026E-02
 STEP TIME COMPLETED       5.026E-02,  TOTAL TIME COMPLETED        5.026E-02


  INCREMENT    10 STARTS. ATTEMPT NUMBER  1, TIME INCREMENT  2.563E-02

 ==> quasi-Newton: performing full factorization

  USING THE DIRECT SOLVER WITH   5 PROCESSORS

     CHECK POINT   START OF SOLVER    

  NUMBER OF EQUATIONS =     34476     NUMBER OF RHS =    1
  NUMBER OF FLOATING PT. OPERATIONS =  7.83E+08

     CHECK POINT  END OF SOLVER       

       ELAPSED USER TIME (SEC)      =  0.40000    
       ELAPSED SYSTEM TIME (SEC)    =  0.10000    
       ELAPSED TOTAL CPU TIME (SEC) =  0.50000    
       ELAPSED WALLCLOCK TIME (SEC) =          0

               CONVERGENCE CHECKS FOR EQUILIBRIUM ITERATION     1


 AVERAGE FORCE                      1.326E-04   TIME AVG. FORCE       7.474E-05
 LARGEST RESIDUAL FORCE             2.323E-05   AT NODE        131   DOF  2
   INSTANCE: WAIST-UP-1                                                                      
 LARGEST INCREMENT OF DISP.         2.538E-04   AT NODE        288   DOF  3
   INSTANCE: WAIST-UP-1                                                                      
 LARGEST CORRECTION TO DISP.       -6.703E-05   AT NODE        499   DOF  3
   INSTANCE: WAIST-UP-1                                                                      
          FORCE     EQUILIBRIUM NOT ACHIEVED WITHIN TOLERANCE.

 AVERAGE MOMENT                     2.210E-08   TIME AVG. MOMENT      1.000E-02
 LARGEST RESIDUAL MOMENT           -2.396E-08   AT NODE        771   DOF  4
   INSTANCE: WAIST-MIDDLE-1                                                                  
 LARGEST INCREMENT OF ROTATION     -1.608E-02   AT NODE         22   DOF  4
   INSTANCE: WAIST-UP-1                                                                      
 LARGEST CORRECTION TO ROTATION     4.577E-03   AT NODE         90   DOF  4
   INSTANCE: WAIST-UP-1                                                                      
          THERE IS ZERO MOMENT    EVERYWHERE
 

 ***WARNING: THERE IS ZERO MOMENT EVERYWHERE IN THE MODEL BASED ON THE DEFAULT 
             CRITERION. PLEASE CHECK THE VALUE OF THE AVERAGE MOMENT DURING THE 
             CURRENT ITERATION TO VERIFY THAT THE MOMENT IS SMALL ENOUGH TO BE 
             TREATED AS ZERO. IF NOT, PLEASE USE THE SOLUTION CONTROLS TO RESET 
             THE CRITERION FOR ZERO MOMENT.

 ==> quasi-Newton: applying BFGS update  1

  USING THE DIRECT SOLVER WITH   5 PROCESSORS

     CHECK POINT   START OF SOLVER    

  NUMBER OF EQUATIONS =     34476     NUMBER OF RHS =    1
  NUMBER OF FLOATING PT. OPERATIONS =  7.83E+08

     CHECK POINT  END OF SOLVER       

       ELAPSED USER TIME (SEC)      =  0.20000    
       ELAPSED SYSTEM TIME (SEC)    =  0.10000    
       ELAPSED TOTAL CPU TIME (SEC) =  0.30000    
       ELAPSED WALLCLOCK TIME (SEC) =          0
 ==> quasi-Newton:  skipped BFGS update  1

               CONVERGENCE CHECKS FOR EQUILIBRIUM ITERATION     2


 AVERAGE FORCE                      1.326E-04   TIME AVG. FORCE       7.473E-05
 LARGEST RESIDUAL FORCE             2.547E-06   AT NODE        460   DOF  2
   INSTANCE: WAIST-UP-1                                                                      
 LARGEST INCREMENT OF DISP.         2.518E-04   AT NODE        288   DOF  3
   INSTANCE: WAIST-UP-1                                                                      
 LARGEST CORRECTION TO DISP.       -2.372E-06   AT NODE        499   DOF  3
   INSTANCE: WAIST-UP-1                                                                      
          FORCE     EQUILIBRIUM NOT ACHIEVED WITHIN TOLERANCE.

 AVERAGE MOMENT                     2.209E-08   TIME AVG. MOMENT      1.000E-02
 LARGEST RESIDUAL MOMENT            8.627E-10   AT NODE        460   DOF  4
   INSTANCE: WAIST-UP-1                                                                      
 LARGEST INCREMENT OF ROTATION     -1.584E-02   AT NODE         22   DOF  4
   INSTANCE: WAIST-UP-1                                                                      
 LARGEST CORRECTION TO ROTATION     2.474E-04   AT NODE         90   DOF  4
   INSTANCE: WAIST-UP-1                                                                      
          THERE IS ZERO MOMENT    EVERYWHERE
 

 ***WARNING: THERE IS ZERO MOMENT EVERYWHERE IN THE MODEL BASED ON THE DEFAULT 
             CRITERION. PLEASE CHECK THE VALUE OF THE AVERAGE MOMENT DURING THE 
             CURRENT ITERATION TO VERIFY THAT THE MOMENT IS SMALL ENOUGH TO BE 
             TREATED AS ZERO. IF NOT, PLEASE USE THE SOLUTION CONTROLS TO RESET 
             THE CRITERION FOR ZERO MOMENT.

 ==> quasi-Newton: applying BFGS update  1

  USING THE DIRECT SOLVER WITH   5 PROCESSORS

     CHECK POINT   START OF SOLVER    

  NUMBER OF EQUATIONS =     34476     NUMBER OF RHS =    1
  NUMBER OF FLOATING PT. OPERATIONS =  7.83E+08

     CHECK POINT  END OF SOLVER       

       ELAPSED USER TIME (SEC)      =  0.10000    
       ELAPSED SYSTEM TIME (SEC)    =   0.0000    
       ELAPSED TOTAL CPU TIME (SEC) =  0.10000    
       ELAPSED WALLCLOCK TIME (SEC) =          0

               CONVERGENCE CHECKS FOR EQUILIBRIUM ITERATION     3


 AVERAGE FORCE                      1.326E-04   TIME AVG. FORCE       7.473E-05
 LARGEST RESIDUAL FORCE             2.929E-08   AT NODE        460   DOF  2
   INSTANCE: WAIST-UP-1                                                                      
 LARGEST INCREMENT OF DISP.         2.517E-04   AT NODE        288   DOF  3
   INSTANCE: WAIST-UP-1                                                                      
 LARGEST CORRECTION TO DISP.       -1.885E-07   AT NODE        499   DOF  3
   INSTANCE: WAIST-UP-1                                                                      
          THE FORCE     EQUILIBRIUM EQUATIONS HAVE CONVERGED

 AVERAGE MOMENT                     2.208E-08   TIME AVG. MOMENT      1.000E-02
 LARGEST RESIDUAL MOMENT            9.897E-12   AT NODE        771   DOF  4
   INSTANCE: WAIST-MIDDLE-1                                                                  
 LARGEST INCREMENT OF ROTATION     -1.582E-02   AT NODE         22   DOF  4
   INSTANCE: WAIST-UP-1                                                                      
 LARGEST CORRECTION TO ROTATION     2.106E-05   AT NODE         90   DOF  4
   INSTANCE: WAIST-UP-1                                                                      
          THERE IS ZERO MOMENT    EVERYWHERE
 

 ***WARNING: THERE IS ZERO MOMENT EVERYWHERE IN THE MODEL BASED ON THE DEFAULT 
             CRITERION. PLEASE CHECK THE VALUE OF THE AVERAGE MOMENT DURING THE 
             CURRENT ITERATION TO VERIFY THAT THE MOMENT IS SMALL ENOUGH TO BE 
             TREATED AS ZERO. IF NOT, PLEASE USE THE SOLUTION CONTROLS TO RESET 
             THE CRITERION FOR ZERO MOMENT.
          TIME INCREMENT MAY NOW INCREASE TO    3.844E-02

 ITERATION SUMMARY FOR THE INCREMENT:   3 TOTAL ITERATIONS, OF WHICH
   0 ARE SEVERE DISCONTINUITY ITERATIONS AND  3 ARE EQUILIBRIUM ITERATIONS.

 TIME INCREMENT COMPLETED  2.563E-02,  FRACTION OF STEP COMPLETED  7.589E-02
 STEP TIME COMPLETED       7.589E-02,  TOTAL TIME COMPLETED        7.589E-02


  INCREMENT    11 STARTS. ATTEMPT NUMBER  1, TIME INCREMENT  3.844E-02

 ==> quasi-Newton: performing full factorization

  USING THE DIRECT SOLVER WITH   5 PROCESSORS

     CHECK POINT   START OF SOLVER    

  NUMBER OF EQUATIONS =     34476     NUMBER OF RHS =    1
  NUMBER OF FLOATING PT. OPERATIONS =  7.83E+08

     CHECK POINT  END OF SOLVER       

       ELAPSED USER TIME (SEC)      =  0.50000    
       ELAPSED SYSTEM TIME (SEC)    =  0.10000    
       ELAPSED TOTAL CPU TIME (SEC) =  0.60000    
       ELAPSED WALLCLOCK TIME (SEC) =          0

               CONVERGENCE CHECKS FOR EQUILIBRIUM ITERATION     1


 AVERAGE FORCE                      1.948E-04   TIME AVG. FORCE       9.875E-05
 LARGEST RESIDUAL FORCE             3.285E-05   AT NODE        131   DOF  2
   INSTANCE: WAIST-UP-1                                                                      
 LARGEST INCREMENT OF DISP.         2.938E-04   AT NODE        288   DOF  3
   INSTANCE: WAIST-UP-1                                                                      
 LARGEST CORRECTION TO DISP.       -8.370E-05   AT NODE        288   DOF  3
   INSTANCE: WAIST-UP-1                                                                      
          FORCE     EQUILIBRIUM NOT ACHIEVED WITHIN TOLERANCE.

 AVERAGE MOMENT                     3.076E-08   TIME AVG. MOMENT      1.000E-02
 LARGEST RESIDUAL MOMENT           -3.400E-08   AT NODE        771   DOF  4
   INSTANCE: WAIST-MIDDLE-1                                                                  
 LARGEST INCREMENT OF ROTATION     -1.827E-02   AT NODE         22   DOF  4
   INSTANCE: WAIST-UP-1                                                                      
 LARGEST CORRECTION TO ROTATION     5.540E-03   AT NODE         90   DOF  4
   INSTANCE: WAIST-UP-1                                                                      
          THERE IS ZERO MOMENT    EVERYWHERE
 

 ***WARNING: THERE IS ZERO MOMENT EVERYWHERE IN THE MODEL BASED ON THE DEFAULT 
             CRITERION. PLEASE CHECK THE VALUE OF THE AVERAGE MOMENT DURING THE 
             CURRENT ITERATION TO VERIFY THAT THE MOMENT IS SMALL ENOUGH TO BE 
             TREATED AS ZERO. IF NOT, PLEASE USE THE SOLUTION CONTROLS TO RESET 
             THE CRITERION FOR ZERO MOMENT.

 ==> quasi-Newton: applying BFGS update  1

  USING THE DIRECT SOLVER WITH   5 PROCESSORS

     CHECK POINT   START OF SOLVER    

  NUMBER OF EQUATIONS =     34476     NUMBER OF RHS =    1
  NUMBER OF FLOATING PT. OPERATIONS =  7.83E+08

     CHECK POINT  END OF SOLVER       

       ELAPSED USER TIME (SEC)      =  0.10000    
       ELAPSED SYSTEM TIME (SEC)    =  0.10000    
       ELAPSED TOTAL CPU TIME (SEC) =  0.20000    
       ELAPSED WALLCLOCK TIME (SEC) =          0
 ==> quasi-Newton:  skipped BFGS update  1

               CONVERGENCE CHECKS FOR EQUILIBRIUM ITERATION     2


 AVERAGE FORCE                      1.947E-04   TIME AVG. FORCE       9.873E-05
 LARGEST RESIDUAL FORCE             3.985E-06   AT NODE        460   DOF  2
   INSTANCE: WAIST-UP-1                                                                      
 LARGEST INCREMENT OF DISP.         2.912E-04   AT NODE        288   DOF  3
   INSTANCE: WAIST-UP-1                                                                      
 LARGEST CORRECTION TO DISP.       -3.120E-06   AT NODE        499   DOF  3
   INSTANCE: WAIST-UP-1                                                                      
          FORCE     EQUILIBRIUM NOT ACHIEVED WITHIN TOLERANCE.

 AVERAGE MOMENT                     3.074E-08   TIME AVG. MOMENT      1.000E-02
 LARGEST RESIDUAL MOMENT            1.542E-09   AT NODE        460   DOF  4
   INSTANCE: WAIST-UP-1                                                                      
 LARGEST INCREMENT OF ROTATION     -1.795E-02   AT NODE         22   DOF  4
   INSTANCE: WAIST-UP-1                                                                      
 LARGEST CORRECTION TO ROTATION     3.257E-04   AT NODE         90   DOF  4
   INSTANCE: WAIST-UP-1                                                                      
          THERE IS ZERO MOMENT    EVERYWHERE
 

 ***WARNING: THERE IS ZERO MOMENT EVERYWHERE IN THE MODEL BASED ON THE DEFAULT 
             CRITERION. PLEASE CHECK THE VALUE OF THE AVERAGE MOMENT DURING THE 
             CURRENT ITERATION TO VERIFY THAT THE MOMENT IS SMALL ENOUGH TO BE 
             TREATED AS ZERO. IF NOT, PLEASE USE THE SOLUTION CONTROLS TO RESET 
             THE CRITERION FOR ZERO MOMENT.

 ==> quasi-Newton: applying BFGS update  1

  USING THE DIRECT SOLVER WITH   5 PROCESSORS

     CHECK POINT   START OF SOLVER    

  NUMBER OF EQUATIONS =     34476     NUMBER OF RHS =    1
  NUMBER OF FLOATING PT. OPERATIONS =  7.83E+08

     CHECK POINT  END OF SOLVER       

       ELAPSED USER TIME (SEC)      =  0.10000    
       ELAPSED SYSTEM TIME (SEC)    =   0.0000    
       ELAPSED TOTAL CPU TIME (SEC) =  0.10000    
       ELAPSED WALLCLOCK TIME (SEC) =          0

               CONVERGENCE CHECKS FOR EQUILIBRIUM ITERATION     3


 AVERAGE FORCE                      1.947E-04   TIME AVG. FORCE       9.873E-05
 LARGEST RESIDUAL FORCE             7.304E-08   AT NODE        460   DOF  2
   INSTANCE: WAIST-UP-1                                                                      
 LARGEST INCREMENT OF DISP.         2.910E-04   AT NODE        288   DOF  3
   INSTANCE: WAIST-UP-1                                                                      
 LARGEST CORRECTION TO DISP.       -2.704E-07   AT NODE        499   DOF  3
   INSTANCE: WAIST-UP-1                                                                      
          THE FORCE     EQUILIBRIUM EQUATIONS HAVE CONVERGED

 AVERAGE MOMENT                     3.074E-08   TIME AVG. MOMENT      1.000E-02
 LARGEST RESIDUAL MOMENT            1.960E-11   AT NODE         22   DOF  4
   INSTANCE: WAIST-UP-1                                                                      
 LARGEST INCREMENT OF ROTATION     -1.792E-02   AT NODE         22   DOF  4
   INSTANCE: WAIST-UP-1                                                                      
 LARGEST CORRECTION TO ROTATION     3.048E-05   AT NODE         90   DOF  4
   INSTANCE: WAIST-UP-1                                                                      
          THERE IS ZERO MOMENT    EVERYWHERE
 

 ***WARNING: THERE IS ZERO MOMENT EVERYWHERE IN THE MODEL BASED ON THE DEFAULT 
             CRITERION. PLEASE CHECK THE VALUE OF THE AVERAGE MOMENT DURING THE 
             CURRENT ITERATION TO VERIFY THAT THE MOMENT IS SMALL ENOUGH TO BE 
             TREATED AS ZERO. IF NOT, PLEASE USE THE SOLUTION CONTROLS TO RESET 
             THE CRITERION FOR ZERO MOMENT.
          TIME INCREMENT MAY NOW INCREASE TO    5.767E-02

 ITERATION SUMMARY FOR THE INCREMENT:   3 TOTAL ITERATIONS, OF WHICH
   0 ARE SEVERE DISCONTINUITY ITERATIONS AND  3 ARE EQUILIBRIUM ITERATIONS.

 TIME INCREMENT COMPLETED  3.844E-02,  FRACTION OF STEP COMPLETED  0.114    
 STEP TIME COMPLETED       0.114    ,  TOTAL TIME COMPLETED        0.114    


  INCREMENT    12 STARTS. ATTEMPT NUMBER  1, TIME INCREMENT  5.767E-02

 ==> quasi-Newton: performing full factorization

  USING THE DIRECT SOLVER WITH   5 PROCESSORS

     CHECK POINT   START OF SOLVER    

  NUMBER OF EQUATIONS =     34476     NUMBER OF RHS =    1
  NUMBER OF FLOATING PT. OPERATIONS =  7.83E+08

     CHECK POINT  END OF SOLVER       

       ELAPSED USER TIME (SEC)      =  0.40000    
       ELAPSED SYSTEM TIME (SEC)    =  0.10000    
       ELAPSED TOTAL CPU TIME (SEC) =  0.50000    
       ELAPSED WALLCLOCK TIME (SEC) =          0

               CONVERGENCE CHECKS FOR EQUILIBRIUM ITERATION     1


 AVERAGE FORCE                      2.855E-04   TIME AVG. FORCE       1.299E-04
 LARGEST RESIDUAL FORCE            -4.196E-05   AT NODE         91   DOF  2
   INSTANCE: WAIST-UP-1                                                                      
 LARGEST INCREMENT OF DISP.         3.415E-04   AT NODE        217   DOF  3
   INSTANCE: WAIST-UP-1                                                                      
 LARGEST CORRECTION TO DISP.       -9.962E-05   AT NODE        288   DOF  3
   INSTANCE: WAIST-UP-1                                                                      
          FORCE     EQUILIBRIUM NOT ACHIEVED WITHIN TOLERANCE.

 AVERAGE MOMENT                     4.234E-08   TIME AVG. MOMENT      1.000E-02
 LARGEST RESIDUAL MOMENT           -4.435E-08   AT NODE        771   DOF  4
   INSTANCE: WAIST-MIDDLE-1                                                                  
 LARGEST INCREMENT OF ROTATION      2.198E-02   AT NODE        102   DOF  4
   INSTANCE: WAIST-UP-1                                                                      
 LARGEST CORRECTION TO ROTATION     6.381E-03   AT NODE         90   DOF  4
   INSTANCE: WAIST-UP-1                                                                      
          THERE IS ZERO MOMENT    EVERYWHERE
 

 ***WARNING: THERE IS ZERO MOMENT EVERYWHERE IN THE MODEL BASED ON THE DEFAULT 
             CRITERION. PLEASE CHECK THE VALUE OF THE AVERAGE MOMENT DURING THE 
             CURRENT ITERATION TO VERIFY THAT THE MOMENT IS SMALL ENOUGH TO BE 
             TREATED AS ZERO. IF NOT, PLEASE USE THE SOLUTION CONTROLS TO RESET 
             THE CRITERION FOR ZERO MOMENT.

 ==> quasi-Newton: applying BFGS update  1

  USING THE DIRECT SOLVER WITH   5 PROCESSORS

     CHECK POINT   START OF SOLVER    

  NUMBER OF EQUATIONS =     34476     NUMBER OF RHS =    1
  NUMBER OF FLOATING PT. OPERATIONS =  7.83E+08

     CHECK POINT  END OF SOLVER       

       ELAPSED USER TIME (SEC)      =  0.10000    
       ELAPSED SYSTEM TIME (SEC)    =   0.0000    
       ELAPSED TOTAL CPU TIME (SEC) =  0.10000    
       ELAPSED WALLCLOCK TIME (SEC) =          0
 ==> quasi-Newton:  skipped BFGS update  1

               CONVERGENCE CHECKS FOR EQUILIBRIUM ITERATION     2


 AVERAGE FORCE                      2.853E-04   TIME AVG. FORCE       1.298E-04
 LARGEST RESIDUAL FORCE            -6.858E-06   AT NODE         91   DOF  2
   INSTANCE: WAIST-UP-1                                                                      
 LARGEST INCREMENT OF DISP.         3.390E-04   AT NODE        217   DOF  3
   INSTANCE: WAIST-UP-1                                                                      
 LARGEST CORRECTION TO DISP.       -3.598E-06   AT NODE        499   DOF  3
   INSTANCE: WAIST-UP-1                                                                      
          FORCE     EQUILIBRIUM NOT ACHIEVED WITHIN TOLERANCE.

 AVERAGE MOMENT                     4.231E-08   TIME AVG. MOMENT      1.000E-02
 LARGEST RESIDUAL MOMENT            2.323E-09   AT NODE        460   DOF  4
   INSTANCE: WAIST-UP-1                                                                      
 LARGEST INCREMENT OF ROTATION      2.165E-02   AT NODE        102   DOF  4
   INSTANCE: WAIST-UP-1                                                                      
 LARGEST CORRECTION TO ROTATION     3.840E-04   AT NODE         90   DOF  4
   INSTANCE: WAIST-UP-1                                                                      
          THERE IS ZERO MOMENT    EVERYWHERE
 

 ***WARNING: THERE IS ZERO MOMENT EVERYWHERE IN THE MODEL BASED ON THE DEFAULT 
             CRITERION. PLEASE CHECK THE VALUE OF THE AVERAGE MOMENT DURING THE 
             CURRENT ITERATION TO VERIFY THAT THE MOMENT IS SMALL ENOUGH TO BE 
             TREATED AS ZERO. IF NOT, PLEASE USE THE SOLUTION CONTROLS TO RESET 
             THE CRITERION FOR ZERO MOMENT.

 ==> quasi-Newton: applying BFGS update  1

  USING THE DIRECT SOLVER WITH   5 PROCESSORS

     CHECK POINT   START OF SOLVER    

  NUMBER OF EQUATIONS =     34476     NUMBER OF RHS =    1
  NUMBER OF FLOATING PT. OPERATIONS =  7.83E+08

     CHECK POINT  END OF SOLVER       

       ELAPSED USER TIME (SEC)      =  0.10000    
       ELAPSED SYSTEM TIME (SEC)    =   0.0000    
       ELAPSED TOTAL CPU TIME (SEC) =  0.10000    
       ELAPSED WALLCLOCK TIME (SEC) =          0

               CONVERGENCE CHECKS FOR EQUILIBRIUM ITERATION     3


 AVERAGE FORCE                      2.853E-04   TIME AVG. FORCE       1.298E-04
 LARGEST RESIDUAL FORCE             1.016E-07   AT NODE        460   DOF  2
   INSTANCE: WAIST-UP-1                                                                      
 LARGEST INCREMENT OF DISP.         3.388E-04   AT NODE        217   DOF  3
   INSTANCE: WAIST-UP-1                                                                      
 LARGEST CORRECTION TO DISP.       -3.194E-07   AT NODE        499   DOF  3
   INSTANCE: WAIST-UP-1                                                                      
          THE FORCE     EQUILIBRIUM EQUATIONS HAVE CONVERGED

 AVERAGE MOMENT                     4.231E-08   TIME AVG. MOMENT      1.000E-02
 LARGEST RESIDUAL MOMENT           -3.069E-11   AT NODE        227   DOF  5
   INSTANCE: WAIST-UP-1                                                                      
 LARGEST INCREMENT OF ROTATION      2.162E-02   AT NODE        102   DOF  4
   INSTANCE: WAIST-UP-1                                                                      
 LARGEST CORRECTION TO ROTATION     3.707E-05   AT NODE         90   DOF  4
   INSTANCE: WAIST-UP-1                                                                      
          THERE IS ZERO MOMENT    EVERYWHERE
 

 ***WARNING: THERE IS ZERO MOMENT EVERYWHERE IN THE MODEL BASED ON THE DEFAULT 
             CRITERION. PLEASE CHECK THE VALUE OF THE AVERAGE MOMENT DURING THE 
             CURRENT ITERATION TO VERIFY THAT THE MOMENT IS SMALL ENOUGH TO BE 
             TREATED AS ZERO. IF NOT, PLEASE USE THE SOLUTION CONTROLS TO RESET 
             THE CRITERION FOR ZERO MOMENT.
          TIME INCREMENT MAY NOW INCREASE TO    8.650E-02

 ITERATION SUMMARY FOR THE INCREMENT:   3 TOTAL ITERATIONS, OF WHICH
   0 ARE SEVERE DISCONTINUITY ITERATIONS AND  3 ARE EQUILIBRIUM ITERATIONS.

 TIME INCREMENT COMPLETED  5.767E-02,  FRACTION OF STEP COMPLETED  0.172    
 STEP TIME COMPLETED       0.172    ,  TOTAL TIME COMPLETED        0.172    


  INCREMENT    13 STARTS. ATTEMPT NUMBER  1, TIME INCREMENT  8.650E-02

 ==> quasi-Newton: performing full factorization

  USING THE DIRECT SOLVER WITH   5 PROCESSORS

     CHECK POINT   START OF SOLVER    

  NUMBER OF EQUATIONS =     34476     NUMBER OF RHS =    1
  NUMBER OF FLOATING PT. OPERATIONS =  7.83E+08

     CHECK POINT  END OF SOLVER       

       ELAPSED USER TIME (SEC)      =  0.30000    
       ELAPSED SYSTEM TIME (SEC)    =  0.10000    
       ELAPSED TOTAL CPU TIME (SEC) =  0.40000    
       ELAPSED WALLCLOCK TIME (SEC) =          0

               CONVERGENCE CHECKS FOR EQUILIBRIUM ITERATION     1


 AVERAGE FORCE                      4.171E-04   TIME AVG. FORCE       1.709E-04
 LARGEST RESIDUAL FORCE            -7.630E-05   AT NODE         91   DOF  2
   INSTANCE: WAIST-UP-1                                                                      
 LARGEST INCREMENT OF DISP.         4.051E-04   AT NODE        217   DOF  3
   INSTANCE: WAIST-UP-1                                                                      
 LARGEST CORRECTION TO DISP.       -1.126E-04   AT NODE        288   DOF  3
   INSTANCE: WAIST-UP-1                                                                      
          FORCE     EQUILIBRIUM NOT ACHIEVED WITHIN TOLERANCE.

 AVERAGE MOMENT                     5.784E-08   TIME AVG. MOMENT      1.000E-02
 LARGEST RESIDUAL MOMENT           -5.338E-08   AT NODE        771   DOF  4
   INSTANCE: WAIST-MIDDLE-1                                                                  
 LARGEST INCREMENT OF ROTATION      2.740E-02   AT NODE        338   DOF  4
   INSTANCE: WAIST-UP-1                                                                      
 LARGEST CORRECTION TO ROTATION     7.105E-03   AT NODE         90   DOF  4
   INSTANCE: WAIST-UP-1                                                                      
          THERE IS ZERO MOMENT    EVERYWHERE
 

 ***WARNING: THERE IS ZERO MOMENT EVERYWHERE IN THE MODEL BASED ON THE DEFAULT 
             CRITERION. PLEASE CHECK THE VALUE OF THE AVERAGE MOMENT DURING THE 
             CURRENT ITERATION TO VERIFY THAT THE MOMENT IS SMALL ENOUGH TO BE 
             TREATED AS ZERO. IF NOT, PLEASE USE THE SOLUTION CONTROLS TO RESET 
             THE CRITERION FOR ZERO MOMENT.

 ==> quasi-Newton: applying BFGS update  1

  USING THE DIRECT SOLVER WITH   5 PROCESSORS

     CHECK POINT   START OF SOLVER    

  NUMBER OF EQUATIONS =     34476     NUMBER OF RHS =    1
  NUMBER OF FLOATING PT. OPERATIONS =  7.83E+08

     CHECK POINT  END OF SOLVER       

       ELAPSED USER TIME (SEC)      =   0.0000    
       ELAPSED SYSTEM TIME (SEC)    =   0.0000    
       ELAPSED TOTAL CPU TIME (SEC) =   0.0000    
       ELAPSED WALLCLOCK TIME (SEC) =          0
 ==> quasi-Newton:  skipped BFGS update  1

               CONVERGENCE CHECKS FOR EQUILIBRIUM ITERATION     2


 AVERAGE FORCE                      4.168E-04   TIME AVG. FORCE       1.708E-04
 LARGEST RESIDUAL FORCE            -1.652E-05   AT NODE         91   DOF  2
   INSTANCE: WAIST-UP-1                                                                      
 LARGEST INCREMENT OF DISP.         4.024E-04   AT NODE        217   DOF  3
   INSTANCE: WAIST-UP-1                                                                      
 LARGEST CORRECTION TO DISP.       -3.752E-06   AT NODE        499   DOF  3
   INSTANCE: WAIST-UP-1                                                                      
          FORCE     EQUILIBRIUM NOT ACHIEVED WITHIN TOLERANCE.

 AVERAGE MOMENT                     5.779E-08   TIME AVG. MOMENT      1.000E-02
 LARGEST RESIDUAL MOMENT            3.120E-09   AT NODE        460   DOF  4
   INSTANCE: WAIST-UP-1                                                                      
 LARGEST INCREMENT OF ROTATION      2.705E-02   AT NODE        338   DOF  4
   INSTANCE: WAIST-UP-1                                                                      
 LARGEST CORRECTION TO ROTATION    -6.253E-04   AT NODE         35   DOF  4
   INSTANCE: WAIST-UP-1                                                                      
          THERE IS ZERO MOMENT    EVERYWHERE
 

 ***WARNING: THERE IS ZERO MOMENT EVERYWHERE IN THE MODEL BASED ON THE DEFAULT 
             CRITERION. PLEASE CHECK THE VALUE OF THE AVERAGE MOMENT DURING THE 
             CURRENT ITERATION TO VERIFY THAT THE MOMENT IS SMALL ENOUGH TO BE 
             TREATED AS ZERO. IF NOT, PLEASE USE THE SOLUTION CONTROLS TO RESET 
             THE CRITERION FOR ZERO MOMENT.

 ==> quasi-Newton: applying BFGS update  1

  USING THE DIRECT SOLVER WITH   5 PROCESSORS

     CHECK POINT   START OF SOLVER    

  NUMBER OF EQUATIONS =     34476     NUMBER OF RHS =    1
  NUMBER OF FLOATING PT. OPERATIONS =  7.83E+08

     CHECK POINT  END OF SOLVER       

       ELAPSED USER TIME (SEC)      =  0.20000    
       ELAPSED SYSTEM TIME (SEC)    =  0.10000    
       ELAPSED TOTAL CPU TIME (SEC) =  0.30000    
       ELAPSED WALLCLOCK TIME (SEC) =          0

               CONVERGENCE CHECKS FOR EQUILIBRIUM ITERATION     3


 AVERAGE FORCE                      4.167E-04   TIME AVG. FORCE       1.708E-04
 LARGEST RESIDUAL FORCE            -2.641E-07   AT NODE        252   DOF  2
   INSTANCE: WAIST-UP-1                                                                      
 LARGEST INCREMENT OF DISP.         4.021E-04   AT NODE        217   DOF  3
   INSTANCE: WAIST-UP-1                                                                      
 LARGEST CORRECTION TO DISP.       -3.895E-07   AT NODE         50   DOF  3
   INSTANCE: WAIST-UP-1                                                                      
          THE FORCE     EQUILIBRIUM EQUATIONS HAVE CONVERGED

 AVERAGE MOMENT                     5.778E-08   TIME AVG. MOMENT      1.000E-02
 LARGEST RESIDUAL MOMENT           -7.722E-11   AT NODE        227   DOF  5
   INSTANCE: WAIST-UP-1                                                                      
 LARGEST INCREMENT OF ROTATION      2.702E-02   AT NODE        338   DOF  4
   INSTANCE: WAIST-UP-1                                                                      
 LARGEST CORRECTION TO ROTATION    -6.729E-05   AT NODE         35   DOF  4
   INSTANCE: WAIST-UP-1                                                                      
          THERE IS ZERO MOMENT    EVERYWHERE
 

 ***WARNING: THERE IS ZERO MOMENT EVERYWHERE IN THE MODEL BASED ON THE DEFAULT 
             CRITERION. PLEASE CHECK THE VALUE OF THE AVERAGE MOMENT DURING THE 
             CURRENT ITERATION TO VERIFY THAT THE MOMENT IS SMALL ENOUGH TO BE 
             TREATED AS ZERO. IF NOT, PLEASE USE THE SOLUTION CONTROLS TO RESET 
             THE CRITERION FOR ZERO MOMENT.
          TIME INCREMENT MAY NOW INCREASE TO    0.100    

 ITERATION SUMMARY FOR THE INCREMENT:   3 TOTAL ITERATIONS, OF WHICH
   0 ARE SEVERE DISCONTINUITY ITERATIONS AND  3 ARE EQUILIBRIUM ITERATIONS.

 TIME INCREMENT COMPLETED  8.650E-02,  FRACTION OF STEP COMPLETED  0.258    
 STEP TIME COMPLETED       0.258    ,  TOTAL TIME COMPLETED        0.258    


  INCREMENT    14 STARTS. ATTEMPT NUMBER  1, TIME INCREMENT  0.100    

 ==> quasi-Newton: performing full factorization

  USING THE DIRECT SOLVER WITH   5 PROCESSORS

     CHECK POINT   START OF SOLVER    

  NUMBER OF EQUATIONS =     34476     NUMBER OF RHS =    1
  NUMBER OF FLOATING PT. OPERATIONS =  7.83E+08

     CHECK POINT  END OF SOLVER       

       ELAPSED USER TIME (SEC)      =  0.40000    
       ELAPSED SYSTEM TIME (SEC)    =  0.10000    
       ELAPSED TOTAL CPU TIME (SEC) =  0.50000    
       ELAPSED WALLCLOCK TIME (SEC) =          0

               CONVERGENCE CHECKS FOR EQUILIBRIUM ITERATION     1


 AVERAGE FORCE                      5.656E-04   TIME AVG. FORCE       2.202E-04
 LARGEST RESIDUAL FORCE            -5.785E-05   AT NODE         91   DOF  2
   INSTANCE: WAIST-UP-1                                                                      
 LARGEST INCREMENT OF DISP.         3.825E-04   AT NODE        217   DOF  3
   INSTANCE: WAIST-UP-1                                                                      
 LARGEST CORRECTION TO DISP.       -8.680E-05   AT NODE        288   DOF  3
   INSTANCE: WAIST-UP-1                                                                      
          FORCE     EQUILIBRIUM NOT ACHIEVED WITHIN TOLERANCE.

 AVERAGE MOMENT                     7.408E-08   TIME AVG. MOMENT      1.000E-02
 LARGEST RESIDUAL MOMENT           -3.776E-08   AT NODE        771   DOF  4
   INSTANCE: WAIST-MIDDLE-1                                                                  
 LARGEST INCREMENT OF ROTATION      2.628E-02   AT NODE        338   DOF  4
   INSTANCE: WAIST-UP-1                                                                      
 LARGEST CORRECTION TO ROTATION    -5.636E-03   AT NODE        102   DOF  4
   INSTANCE: WAIST-UP-1                                                                      
          THERE IS ZERO MOMENT    EVERYWHERE
 

 ***WARNING: THERE IS ZERO MOMENT EVERYWHERE IN THE MODEL BASED ON THE DEFAULT 
             CRITERION. PLEASE CHECK THE VALUE OF THE AVERAGE MOMENT DURING THE 
             CURRENT ITERATION TO VERIFY THAT THE MOMENT IS SMALL ENOUGH TO BE 
             TREATED AS ZERO. IF NOT, PLEASE USE THE SOLUTION CONTROLS TO RESET 
             THE CRITERION FOR ZERO MOMENT.

 ==> quasi-Newton: applying BFGS update  1

  USING THE DIRECT SOLVER WITH   5 PROCESSORS

     CHECK POINT   START OF SOLVER    

  NUMBER OF EQUATIONS =     34476     NUMBER OF RHS =    1
  NUMBER OF FLOATING PT. OPERATIONS =  7.83E+08

     CHECK POINT  END OF SOLVER       

       ELAPSED USER TIME (SEC)      =  0.10000    
       ELAPSED SYSTEM TIME (SEC)    =   0.0000    
       ELAPSED TOTAL CPU TIME (SEC) =  0.10000    
       ELAPSED WALLCLOCK TIME (SEC) =          0
 ==> quasi-Newton:  skipped BFGS update  1

               CONVERGENCE CHECKS FOR EQUILIBRIUM ITERATION     2


 AVERAGE FORCE                      5.653E-04   TIME AVG. FORCE       2.201E-04
 LARGEST RESIDUAL FORCE            -1.108E-05   AT NODE         91   DOF  2
   INSTANCE: WAIST-UP-1                                                                      
 LARGEST INCREMENT OF DISP.         3.810E-04   AT NODE        217   DOF  3
   INSTANCE: WAIST-UP-1                                                                      
 LARGEST CORRECTION TO DISP.       -2.638E-06   AT NODE         50   DOF  3
   INSTANCE: WAIST-UP-1                                                                      
          FORCE     EQUILIBRIUM NOT ACHIEVED WITHIN TOLERANCE.

 AVERAGE MOMENT                     7.403E-08   TIME AVG. MOMENT      1.000E-02
 LARGEST RESIDUAL MOMENT            1.445E-09   AT NODE        460   DOF  4
   INSTANCE: WAIST-UP-1                                                                      
 LARGEST INCREMENT OF ROTATION      2.594E-02   AT NODE        338   DOF  4
   INSTANCE: WAIST-UP-1                                                                      
 LARGEST CORRECTION TO ROTATION    -4.861E-04   AT NODE         35   DOF  4
   INSTANCE: WAIST-UP-1                                                                      
          THERE IS ZERO MOMENT    EVERYWHERE
 

 ***WARNING: THERE IS ZERO MOMENT EVERYWHERE IN THE MODEL BASED ON THE DEFAULT 
             CRITERION. PLEASE CHECK THE VALUE OF THE AVERAGE MOMENT DURING THE 
             CURRENT ITERATION TO VERIFY THAT THE MOMENT IS SMALL ENOUGH TO BE 
             TREATED AS ZERO. IF NOT, PLEASE USE THE SOLUTION CONTROLS TO RESET 
             THE CRITERION FOR ZERO MOMENT.

 ==> quasi-Newton: applying BFGS update  1

  USING THE DIRECT SOLVER WITH   5 PROCESSORS

     CHECK POINT   START OF SOLVER    

  NUMBER OF EQUATIONS =     34476     NUMBER OF RHS =    1
  NUMBER OF FLOATING PT. OPERATIONS =  7.83E+08

     CHECK POINT  END OF SOLVER       

       ELAPSED USER TIME (SEC)      =  0.10000    
       ELAPSED SYSTEM TIME (SEC)    =   0.0000    
       ELAPSED TOTAL CPU TIME (SEC) =  0.10000    
       ELAPSED WALLCLOCK TIME (SEC) =          0

               CONVERGENCE CHECKS FOR EQUILIBRIUM ITERATION     3


 AVERAGE FORCE                      5.653E-04   TIME AVG. FORCE       2.201E-04
 LARGEST RESIDUAL FORCE            -1.573E-07   AT NODE        252   DOF  2
   INSTANCE: WAIST-UP-1                                                                      
 LARGEST INCREMENT OF DISP.         3.809E-04   AT NODE        217   DOF  3
   INSTANCE: WAIST-UP-1                                                                      
 LARGEST CORRECTION TO DISP.       -2.429E-07   AT NODE         50   DOF  3
   INSTANCE: WAIST-UP-1                                                                      
          THE FORCE     EQUILIBRIUM EQUATIONS HAVE CONVERGED

 AVERAGE MOMENT                     7.403E-08   TIME AVG. MOMENT      1.000E-02
 LARGEST RESIDUAL MOMENT           -7.439E-11   AT NODE        227   DOF  5
   INSTANCE: WAIST-UP-1                                                                      
 LARGEST INCREMENT OF ROTATION      2.591E-02   AT NODE        338   DOF  4
   INSTANCE: WAIST-UP-1                                                                      
 LARGEST CORRECTION TO ROTATION    -4.342E-05   AT NODE         35   DOF  4
   INSTANCE: WAIST-UP-1                                                                      
          THERE IS ZERO MOMENT    EVERYWHERE
 

 ***WARNING: THERE IS ZERO MOMENT EVERYWHERE IN THE MODEL BASED ON THE DEFAULT 
             CRITERION. PLEASE CHECK THE VALUE OF THE AVERAGE MOMENT DURING THE 
             CURRENT ITERATION TO VERIFY THAT THE MOMENT IS SMALL ENOUGH TO BE 
[...]
 LARGEST INCREMENT OF DISP.         2.936E-04   AT NODE        499   DOF  3
   INSTANCE: WAIST-MIDDLE-1                                                                  
 LARGEST CORRECTION TO DISP.        8.205E-05   AT NODE        586   DOF  3
   INSTANCE: WAIST-MIDDLE-1                                                                  
          FORCE     EQUILIBRIUM NOT ACHIEVED WITHIN TOLERANCE.

 AVERAGE MOMENT                     2.828E-07   TIME AVG. MOMENT      2.774E-07
 LARGEST RESIDUAL MOMENT           -1.566E-08   AT NODE        606   DOF  6
   INSTANCE: WAIST-MIDDLE-1                                                                  
 LARGEST INCREMENT OF ROTATION     -1.287E-02   AT NODE        777   DOF  4
   INSTANCE: WAIST-MIDDLE-1                                                                  
 LARGEST CORRECTION TO ROTATION    -7.167E-03   AT NODE        572   DOF  5
   INSTANCE: WAIST-MIDDLE-1                                                                  
          MOMENT    EQUILIBRIUM NOT ACHIEVED WITHIN TOLERANCE.

 ==> quasi-Newton: performing full factorization

  USING THE DIRECT SOLVER WITH   5 PROCESSORS

     CHECK POINT   START OF SOLVER    

  NUMBER OF EQUATIONS =     34488     NUMBER OF RHS =    1
  NUMBER OF FLOATING PT. OPERATIONS =  8.79E+08

     CHECK POINT  END OF SOLVER       

       ELAPSED USER TIME (SEC)      =  0.50000    
       ELAPSED SYSTEM TIME (SEC)    =  0.10000    
       ELAPSED TOTAL CPU TIME (SEC) =  0.60000    
       ELAPSED WALLCLOCK TIME (SEC) =          0

                    3 SEVERE DISCONTINUITIES OCCURRED DURING THIS ITERATION.
                    1 POINTS CHANGED FROM OPEN TO CLOSED
                    2 POINTS CHANGED FROM CLOSED TO OPEN

               CONVERGENCE CHECKS FOR SEVERE DISCONTINUITY ITERATION     2

   MAX. PENETRATION ERROR 2.59052E-06 AT NODE WAIST-UP-1.558 OF CONTACT PAIR 
   (ASSEMBLY_NDE-35-OUT_CNS_,ASSEMBLY_WAIST-MIDDLE-1_SURF-INN)
   MAX. CONTACT FORCE ERROR 834.061       AT NODE WAIST-UP-1.558 OF CONTACT 
   PAIR (ASSEMBLY_NDE-35-OUT_CNS_,ASSEMBLY_WAIST-MIDDLE-1_SURF-INN)
          PENETRATION ERROR TOO LARGE COMPARED TO DISPLACEMENT INCREMENT.

 AVERAGE FORCE                      1.147E-03   TIME AVG. FORCE       1.114E-03
 LARGEST RESIDUAL FORCE            -2.572E-03   AT NODE        558   DOF  3
   INSTANCE: WAIST-UP-1                                                                      
 LARGEST INCREMENT OF DISP.         2.937E-04   AT NODE        499   DOF  3
   INSTANCE: WAIST-MIDDLE-1                                                                  
 LARGEST CORRECTION TO DISP.        1.155E-04   AT NODE        518   DOF  3
   INSTANCE: WAIST-MIDDLE-1                                                                  
          FORCE     EQUILIBRIUM NOT ACHIEVED WITHIN TOLERANCE.

 AVERAGE MOMENT                     2.815E-07   TIME AVG. MOMENT      2.771E-07
 LARGEST RESIDUAL MOMENT            1.812E-08   AT NODE        386   DOF  4
   INSTANCE: WAIST-UP-1                                                                      
 LARGEST INCREMENT OF ROTATION     -1.362E-02   AT NODE        777   DOF  4
   INSTANCE: WAIST-MIDDLE-1                                                                  
 LARGEST CORRECTION TO ROTATION    -7.601E-03   AT NODE        762   DOF  4
   INSTANCE: WAIST-MIDDLE-1                                                                  
          MOMENT    EQUILIBRIUM NOT ACHIEVED WITHIN TOLERANCE.

 ==> quasi-Newton: performing full factorization

  USING THE DIRECT SOLVER WITH   5 PROCESSORS

     CHECK POINT   START OF SOLVER    

  NUMBER OF EQUATIONS =     34487     NUMBER OF RHS =    1
  NUMBER OF FLOATING PT. OPERATIONS =  8.77E+08

     CHECK POINT  END OF SOLVER       

       ELAPSED USER TIME (SEC)      =  0.50000    
       ELAPSED SYSTEM TIME (SEC)    =  0.10000    
       ELAPSED TOTAL CPU TIME (SEC) =  0.60000    
       ELAPSED WALLCLOCK TIME (SEC) =          0

                    1 SEVERE DISCONTINUITIES OCCURRED DURING THIS ITERATION.
                    1 POINTS CHANGED FROM CLOSED TO OPEN

               CONVERGENCE CHECKS FOR SEVERE DISCONTINUITY ITERATION     3

   MAX. PENETRATION ERROR -5.59058E-09 AT NODE WAIST-UP-1.315 OF CONTACT PAIR 
   (ASSEMBLY_NDE-35-OUT_CNS_,ASSEMBLY_WAIST-MIDDLE-1_SURF-INN)
   MAX. CONTACT FORCE ERROR -1.79998     AT NODE WAIST-UP-1.315 OF CONTACT PAIR 
   (ASSEMBLY_NDE-35-OUT_CNS_,ASSEMBLY_WAIST-MIDDLE-1_SURF-INN)
          THE ESTIMATED CONTACT FORCE ERROR IS OUTSIDE OF CONVERGENCE TOLERANCES.

 AVERAGE FORCE                      1.147E-03   TIME AVG. FORCE       1.114E-03
 LARGEST RESIDUAL FORCE            -8.105E-04   AT NODE        558   DOF  3
   INSTANCE: WAIST-UP-1                                                                      
 LARGEST INCREMENT OF DISP.         2.933E-04   AT NODE        499   DOF  3
   INSTANCE: WAIST-MIDDLE-1                                                                  
 LARGEST CORRECTION TO DISP.        5.223E-05   AT NODE        711   DOF  3
   INSTANCE: WAIST-MIDDLE-1                                                                  
          FORCE     EQUILIBRIUM NOT ACHIEVED WITHIN TOLERANCE.

 AVERAGE MOMENT                     2.812E-07   TIME AVG. MOMENT      2.771E-07
 LARGEST RESIDUAL MOMENT            5.440E-09   AT NODE        304   DOF  4
   INSTANCE: WAIST-UP-1                                                                      
 LARGEST INCREMENT OF ROTATION     -1.360E-02   AT NODE        777   DOF  4
   INSTANCE: WAIST-MIDDLE-1                                                                  
 LARGEST CORRECTION TO ROTATION    -5.629E-03   AT NODE        210   DOF  5
   INSTANCE: WAIST-MIDDLE-1                                                                  
          MOMENT    EQUILIBRIUM NOT ACHIEVED WITHIN TOLERANCE.

 ==> quasi-Newton: performing full factorization

  USING THE DIRECT SOLVER WITH   5 PROCESSORS

     CHECK POINT   START OF SOLVER    

  NUMBER OF EQUATIONS =     34486     NUMBER OF RHS =    1
  NUMBER OF FLOATING PT. OPERATIONS =  8.76E+08

     CHECK POINT  END OF SOLVER       

       ELAPSED USER TIME (SEC)      =  0.50000    
       ELAPSED SYSTEM TIME (SEC)    =  0.10000    
       ELAPSED TOTAL CPU TIME (SEC) =  0.60000    
       ELAPSED WALLCLOCK TIME (SEC) =          0

               CONVERGENCE CHECKS FOR EQUILIBRIUM ITERATION     2

   MAX. PENETRATION ERROR 3.01400E-09 AT NODE WAIST-UP-1.564 OF CONTACT PAIR 
   (ASSEMBLY_NDE-35-OUT_CNS_,ASSEMBLY_WAIST-MIDDLE-1_SURF-INN)
   MAX. CONTACT FORCE ERROR 970.409E-03   AT NODE WAIST-UP-1.564 OF CONTACT 
   PAIR (ASSEMBLY_NDE-35-OUT_CNS_,ASSEMBLY_WAIST-MIDDLE-1_SURF-INN)
          THE ESTIMATED CONTACT FORCE ERROR IS OUTSIDE OF CONVERGENCE TOLERANCES.

 AVERAGE FORCE                      1.146E-03   TIME AVG. FORCE       1.114E-03
 LARGEST RESIDUAL FORCE             3.981E-05   AT NODE        210   DOF  2
   INSTANCE: WAIST-MIDDLE-1                                                                  
 LARGEST INCREMENT OF DISP.         2.926E-04   AT NODE        640   DOF  3
   INSTANCE: WAIST-MIDDLE-1                                                                  
 LARGEST CORRECTION TO DISP.        7.481E-05   AT NODE        148   DOF  3
   INSTANCE: WAIST-MIDDLE-1                                                                  
          FORCE     EQUILIBRIUM NOT ACHIEVED WITHIN TOLERANCE.

 AVERAGE MOMENT                     2.808E-07   TIME AVG. MOMENT      2.770E-07
 LARGEST RESIDUAL MOMENT            5.340E-09   AT NODE        275   DOF  4
   INSTANCE: WAIST-UP-1                                                                      
 LARGEST INCREMENT OF ROTATION     -1.334E-02   AT NODE        777   DOF  4
   INSTANCE: WAIST-MIDDLE-1                                                                  
 LARGEST CORRECTION TO ROTATION    -5.273E-03   AT NODE        206   DOF  4
   INSTANCE: WAIST-MIDDLE-1                                                                  
          MOMENT    EQUILIBRIUM NOT ACHIEVED WITHIN TOLERANCE.

 ==> quasi-Newton: applying BFGS update  1

  USING THE DIRECT SOLVER WITH   5 PROCESSORS

     CHECK POINT   START OF SOLVER    

  NUMBER OF EQUATIONS =     34486     NUMBER OF RHS =    1
  NUMBER OF FLOATING PT. OPERATIONS =  8.76E+08

     CHECK POINT  END OF SOLVER       

       ELAPSED USER TIME (SEC)      =  0.20000    
       ELAPSED SYSTEM TIME (SEC)    =   0.0000    
       ELAPSED TOTAL CPU TIME (SEC) =  0.20000    
       ELAPSED WALLCLOCK TIME (SEC) =          0
 ==> quasi-Newton:  skipped BFGS update  1

               CONVERGENCE CHECKS FOR EQUILIBRIUM ITERATION     3

   MAX. PENETRATION ERROR -17.2945E-12  AT NODE WAIST-UP-1.377 OF CONTACT PAIR 
   (ASSEMBLY_NDE-35-OUT_CNS_,ASSEMBLY_WAIST-MIDDLE-1_SURF-INN)
   MAX. CONTACT FORCE ERROR -5.56825E-03 AT NODE WAIST-UP-1.377 OF CONTACT PAIR 
   (ASSEMBLY_NDE-35-OUT_CNS_,ASSEMBLY_WAIST-MIDDLE-1_SURF-INN)
          THE ESTIMATED CONTACT FORCE ERROR IS OUTSIDE OF CONVERGENCE TOLERANCES.

 AVERAGE FORCE                      1.146E-03   TIME AVG. FORCE       1.114E-03
 LARGEST RESIDUAL FORCE            -2.453E-07   AT NODE        113   DOF  2
   INSTANCE: WAIST-MIDDLE-1                                                                  
 LARGEST INCREMENT OF DISP.         2.926E-04   AT NODE        640   DOF  3
   INSTANCE: WAIST-MIDDLE-1                                                                  
 LARGEST CORRECTION TO DISP.       -3.518E-07   AT NODE        148   DOF  3
   INSTANCE: WAIST-MIDDLE-1                                                                  
          THE FORCE     EQUILIBRIUM EQUATIONS HAVE CONVERGED

 AVERAGE MOMENT                     2.808E-07   TIME AVG. MOMENT      2.770E-07
 LARGEST RESIDUAL MOMENT           -2.003E-10   AT NODE        206   DOF  4
   INSTANCE: WAIST-MIDDLE-1                                                                  
 LARGEST INCREMENT OF ROTATION     -1.334E-02   AT NODE        777   DOF  4
   INSTANCE: WAIST-MIDDLE-1                                                                  
 LARGEST CORRECTION TO ROTATION     2.214E-05   AT NODE        238   DOF  4
   INSTANCE: WAIST-MIDDLE-1                                                                  
          THE MOMENT    EQUILIBRIUM EQUATIONS HAVE CONVERGED

 ==> quasi-Newton: applying BFGS update  1

  USING THE DIRECT SOLVER WITH   5 PROCESSORS

     CHECK POINT   START OF SOLVER    

  NUMBER OF EQUATIONS =     34486     NUMBER OF RHS =    1
  NUMBER OF FLOATING PT. OPERATIONS =  8.76E+08

     CHECK POINT  END OF SOLVER       

       ELAPSED USER TIME (SEC)      =  0.10000    
       ELAPSED SYSTEM TIME (SEC)    =   0.0000    
       ELAPSED TOTAL CPU TIME (SEC) =  0.10000    
       ELAPSED WALLCLOCK TIME (SEC) =          0

               CONVERGENCE CHECKS FOR EQUILIBRIUM ITERATION     4

   MAX. PENETRATION ERROR -2.32413E-12 AT NODE WAIST-UP-1.564 OF CONTACT PAIR 
   (ASSEMBLY_NDE-35-OUT_CNS_,ASSEMBLY_WAIST-MIDDLE-1_SURF-INN)
   MAX. CONTACT FORCE ERROR -748.294E-06   AT NODE WAIST-UP-1.564 OF CONTACT 
   PAIR (ASSEMBLY_NDE-35-OUT_CNS_,ASSEMBLY_WAIST-MIDDLE-1_SURF-INN)
          THE CONTACT CONSTRAINTS HAVE CONVERGED.

 AVERAGE FORCE                      1.146E-03   TIME AVG. FORCE       1.114E-03
 LARGEST RESIDUAL FORCE            -1.395E-08   AT NODE        238   DOF  2
   INSTANCE: WAIST-MIDDLE-1                                                                  
 LARGEST INCREMENT OF DISP.         2.926E-04   AT NODE        640   DOF  3
   INSTANCE: WAIST-MIDDLE-1                                                                  
 LARGEST CORRECTION TO DISP.        3.778E-08   AT NODE        148   DOF  3
   INSTANCE: WAIST-MIDDLE-1                                                                  
          THE FORCE     EQUILIBRIUM EQUATIONS HAVE CONVERGED

 AVERAGE MOMENT                     2.808E-07   TIME AVG. MOMENT      2.770E-07
 LARGEST RESIDUAL MOMENT           -3.121E-12   AT NODE        275   DOF  4
   INSTANCE: WAIST-UP-1                                                                      
 LARGEST INCREMENT OF ROTATION     -1.334E-02   AT NODE        777   DOF  4
   INSTANCE: WAIST-MIDDLE-1                                                                  
 LARGEST CORRECTION TO ROTATION    -3.642E-06   AT NODE        206   DOF  4
   INSTANCE: WAIST-MIDDLE-1                                                                  
          THE MOMENT    EQUILIBRIUM EQUATIONS HAVE CONVERGED
          TIME INCREMENT MAY NOW INCREASE TO    3.375E-03

 ITERATION SUMMARY FOR THE INCREMENT:   7 TOTAL ITERATIONS, OF WHICH
   3 ARE SEVERE DISCONTINUITY ITERATIONS AND  4 ARE EQUILIBRIUM ITERATIONS.

 TIME INCREMENT COMPLETED  2.250E-03,  FRACTION OF STEP COMPLETED  6.750E-03
 STEP TIME COMPLETED       6.750E-03,  TOTAL TIME COMPLETED         1.01    


  INCREMENT     6 STARTS. ATTEMPT NUMBER  1, TIME INCREMENT  3.375E-03

 ==> quasi-Newton: performing full factorization

  USING THE DIRECT SOLVER WITH   5 PROCESSORS

     CHECK POINT   START OF SOLVER    

  NUMBER OF EQUATIONS =     34486     NUMBER OF RHS =    1
  NUMBER OF FLOATING PT. OPERATIONS =  8.76E+08

     CHECK POINT  END OF SOLVER       

       ELAPSED USER TIME (SEC)      =  0.30000    
       ELAPSED SYSTEM TIME (SEC)    =  0.10000    
       ELAPSED TOTAL CPU TIME (SEC) =  0.40000    
       ELAPSED WALLCLOCK TIME (SEC) =          0

                    2 SEVERE DISCONTINUITIES OCCURRED DURING THIS ITERATION.
                    2 POINTS CHANGED FROM CLOSED TO OPEN

               CONVERGENCE CHECKS FOR SEVERE DISCONTINUITY ITERATION     1

   MAX. PENETRATION ERROR 35.1343E-09  AT NODE WAIST-UP-1.223 OF CONTACT PAIR 
   (ASSEMBLY_NDE-35-OUT_CNS_,ASSEMBLY_WAIST-MIDDLE-1_SURF-INN)
   MAX. CONTACT FORCE ERROR 11.3121      AT NODE WAIST-UP-1.223 OF CONTACT PAIR 
   (ASSEMBLY_NDE-35-OUT_CNS_,ASSEMBLY_WAIST-MIDDLE-1_SURF-INN)
          THE ESTIMATED CONTACT FORCE ERROR IS OUTSIDE OF CONVERGENCE TOLERANCES.

 AVERAGE FORCE                      1.197E-03   TIME AVG. FORCE       1.128E-03
 LARGEST RESIDUAL FORCE            -6.715E-04   AT NODE        548   DOF  3
   INSTANCE: WAIST-UP-1                                                                      
 LARGEST INCREMENT OF DISP.         4.266E-04   AT NODE         15   DOF  3
   INSTANCE: WAIST-MIDDLE-1                                                                  
 LARGEST CORRECTION TO DISP.        1.507E-04   AT NODE        148   DOF  3
   INSTANCE: WAIST-MIDDLE-1                                                                  
          FORCE     EQUILIBRIUM NOT ACHIEVED WITHIN TOLERANCE.

 AVERAGE MOMENT                     2.853E-07   TIME AVG. MOMENT      2.784E-07
 LARGEST RESIDUAL MOMENT            3.577E-08   AT NODE        740   DOF  5
   INSTANCE: WAIST-MIDDLE-1                                                                  
 LARGEST INCREMENT OF ROTATION     -1.945E-02   AT NODE        327   DOF  4
   INSTANCE: WAIST-MIDDLE-1                                                                  
 LARGEST CORRECTION TO ROTATION    -1.079E-02   AT NODE        206   DOF  4
   INSTANCE: WAIST-MIDDLE-1                                                                  
          MOMENT    EQUILIBRIUM NOT ACHIEVED WITHIN TOLERANCE.

 ==> quasi-Newton: performing full factorization

  USING THE DIRECT SOLVER WITH   5 PROCESSORS

     CHECK POINT   START OF SOLVER    

  NUMBER OF EQUATIONS =     34484     NUMBER OF RHS =    1
  NUMBER OF FLOATING PT. OPERATIONS =  8.75E+08

     CHECK POINT  END OF SOLVER       

       ELAPSED USER TIME (SEC)      =  0.50000    
       ELAPSED SYSTEM TIME (SEC)    =  0.10000    
       ELAPSED TOTAL CPU TIME (SEC) =  0.60000    
       ELAPSED WALLCLOCK TIME (SEC) =          0

               CONVERGENCE CHECKS FOR EQUILIBRIUM ITERATION     2

   MAX. PENETRATION ERROR 30.3758E-09  AT NODE WAIST-UP-1.223 OF CONTACT PAIR 
   (ASSEMBLY_NDE-35-OUT_CNS_,ASSEMBLY_WAIST-MIDDLE-1_SURF-INN)
   MAX. CONTACT FORCE ERROR 9.78002     AT NODE WAIST-UP-1.223 OF CONTACT PAIR 
   (ASSEMBLY_NDE-35-OUT_CNS_,ASSEMBLY_WAIST-MIDDLE-1_SURF-INN)
          THE ESTIMATED CONTACT FORCE ERROR IS OUTSIDE OF CONVERGENCE TOLERANCES.

 AVERAGE FORCE                      1.197E-03   TIME AVG. FORCE       1.128E-03
 LARGEST RESIDUAL FORCE             3.191E-05   AT NODE        700   DOF  3
   INSTANCE: WAIST-MIDDLE-1                                                                  
 LARGEST INCREMENT OF DISP.         4.249E-04   AT NODE         15   DOF  3
   INSTANCE: WAIST-MIDDLE-1                                                                  
 LARGEST CORRECTION TO DISP.        3.686E-05   AT NODE        604   DOF  3
   INSTANCE: WAIST-MIDDLE-1                                                                  
          FORCE     EQUILIBRIUM NOT ACHIEVED WITHIN TOLERANCE.

 AVERAGE MOMENT                     2.853E-07   TIME AVG. MOMENT      2.783E-07
 LARGEST RESIDUAL MOMENT            1.035E-08   AT NODE        611   DOF  4
   INSTANCE: WAIST-MIDDLE-1                                                                  
 LARGEST INCREMENT OF ROTATION     -1.925E-02   AT NODE        327   DOF  4
   INSTANCE: WAIST-MIDDLE-1                                                                  
 LARGEST CORRECTION TO ROTATION     4.459E-03   AT NODE         88   DOF  5
   INSTANCE: WAIST-MIDDLE-1                                                                  
          MOMENT    EQUILIBRIUM NOT ACHIEVED WITHIN TOLERANCE.

 ==> quasi-Newton: applying BFGS update  1

  USING THE DIRECT SOLVER WITH   5 PROCESSORS

     CHECK POINT   START OF SOLVER    

  NUMBER OF EQUATIONS =     34484     NUMBER OF RHS =    1
  NUMBER OF FLOATING PT. OPERATIONS =  8.75E+08

     CHECK POINT  END OF SOLVER       

       ELAPSED USER TIME (SEC)      =  0.10000    
       ELAPSED SYSTEM TIME (SEC)    =   0.0000    
       ELAPSED TOTAL CPU TIME (SEC) =  0.10000    
       ELAPSED WALLCLOCK TIME (SEC) =          0
 ==> quasi-Newton:  skipped BFGS update  1

               CONVERGENCE CHECKS FOR EQUILIBRIUM ITERATION     3

   MAX. PENETRATION ERROR 281.442E-12   AT NODE WAIST-UP-1.223 OF CONTACT PAIR 
   (ASSEMBLY_NDE-35-OUT_CNS_,ASSEMBLY_WAIST-MIDDLE-1_SURF-INN)
   MAX. CONTACT FORCE ERROR 90.6152E-03  AT NODE WAIST-UP-1.223 OF CONTACT PAIR 
   (ASSEMBLY_NDE-35-OUT_CNS_,ASSEMBLY_WAIST-MIDDLE-1_SURF-INN)
          THE ESTIMATED CONTACT FORCE ERROR IS OUTSIDE OF CONVERGENCE TOLERANCES.

 AVERAGE FORCE                      1.197E-03   TIME AVG. FORCE       1.128E-03
 LARGEST RESIDUAL FORCE             2.394E-07   AT NODE        223   DOF  1
   INSTANCE: WAIST-UP-1                                                                      
 LARGEST INCREMENT OF DISP.         4.249E-04   AT NODE         15   DOF  3
   INSTANCE: WAIST-MIDDLE-1                                                                  
 LARGEST CORRECTION TO DISP.       -5.107E-08   AT NODE        606   DOF  3
   INSTANCE: WAIST-MIDDLE-1                                                                  
          THE FORCE     EQUILIBRIUM EQUATIONS HAVE CONVERGED

 AVERAGE MOMENT                     2.853E-07   TIME AVG. MOMENT      2.783E-07
 LARGEST RESIDUAL MOMENT            3.400E-10   AT NODE        611   DOF  4
   INSTANCE: WAIST-MIDDLE-1                                                                  
 LARGEST INCREMENT OF ROTATION     -1.925E-02   AT NODE        327   DOF  4
   INSTANCE: WAIST-MIDDLE-1                                                                  
 LARGEST CORRECTION TO ROTATION     4.009E-05   AT NODE        611   DOF  4
   INSTANCE: WAIST-MIDDLE-1                                                                  
          THE MOMENT    EQUILIBRIUM EQUATIONS HAVE CONVERGED

 ==> quasi-Newton: applying BFGS update  1

  USING THE DIRECT SOLVER WITH   5 PROCESSORS

     CHECK POINT   START OF SOLVER    
