 Abaqus/Standard 2020                  DATE 05-May-2022 TIME 05:41:34
 SUMMARY OF JOB INFORMATION:
 STEP  INC ATT SEVERE EQUIL TOTAL  TOTAL      STEP       INC OF       DOF    IF
               DISCON ITERS ITERS  TIME/    TIME/LPF    TIME/LPF    MONITOR RIKS
               ITERS               FREQ
   1     1   1     0     1     1  0.00100    0.00100    0.001000  
   1     2   1     0     1     1  0.00200    0.00200    0.001000  
   1     3   1     0     1     1  0.00350    0.00350    0.001500  
   1     4   1     0     1     1  0.00575    0.00575    0.002250  
   1     5   1     0     1     1  0.00913    0.00913    0.003375  
   1     6   1     0     1     1  0.0142     0.0142     0.005063  
   1     7   1     0     3     3  0.0218     0.0218     0.007594  
   1     8   1     0     3     3  0.0332     0.0332     0.01139   
   1     9   1     0     3     3  0.0503     0.0503     0.01709   
   1    10   1     0     3     3  0.0759     0.0759     0.02563   
   1    11   1     0     3     3  0.114      0.114      0.03844   
   1    12   1     0     3     3  0.172      0.172      0.05767   
   1    13   1     0     3     3  0.258      0.258      0.08650   
   1    14   1     0     3     3  0.358      0.358      0.1000    
   1    15   1     0     3     3  0.458      0.458      0.1000    
   1    16   1     0     2     2  0.558      0.558      0.1000    
   1    17   1     2     4     6  0.658      0.658      0.1000    
   1    18   1     3     4     7  0.758      0.758      0.1000    
   1    19   1     3     4     7  0.858      0.858      0.1000    
   1    20   1     3     5     8  0.958      0.958      0.1000    
   1    21   1     1     4     5  1.00       1.00       0.04151   
   2     1   1     1     5     6  1.00       0.00100    0.001000  
   2     2   1     1     4     5  1.00       0.00200    0.001000  
   2     3   1     1     3     4  1.00       0.00300    0.001000  
   2     4   1     2     4     6  1.00       0.00450    0.001500  
   2     5   1     3     4     7  1.01       0.00675    0.002250  
