*Heading
** Job name: Job-Man Model name: Job-Man
** Generated by: Abaqus/CAE 2020
*Preprint, echo=NO, model=NO, history=NO, contact=NO
**
** PARTS
**
*Part, name=CHEST-LEFT
*Node
      1, 0.0286689997,   1.12039995, 0.0836270005
      2,  0.144069999,   1.13032997, 0.0159370005
      3,  0.121913999,   1.22696996, 0.0649269968
      4,  0.151950002,   1.20518005, 0.0473960005
      5,  0.090421997,   1.21328998, 0.0782179981
      6, 0.0298040006,   1.14049006, 0.0811770037
      7,  0.131280005,   1.14639997, 0.0434649996
      8,  0.120995998,      1.22103, 0.0675600022
      9, 0.0938830003,   1.20193994, 0.0811180025
     10, 0.0646840036,   1.20606995, 0.0812190026
     11,  0.103941999,   1.18466997, 0.0807479993
     12,  0.103841998,   1.20772004, 0.0774800032
     13, 0.0723090023,   1.13387001, 0.0795670003
     14, 0.0810640007,   1.14875996, 0.0782499984
     15, 0.0279079992,   1.12585998, 0.0829270035
     16,  0.069062002,   1.12390995, 0.0805350021
     17,  0.131844997,   1.15917003, 0.0513850003
     18,  0.158429995,   1.21430004, 0.0388399996
     19, 0.0461350009,   1.14916003, 0.0811680034
     20,  0.152474999,   1.20000994,  0.044693999
** ... 895 like lines cut
*Element, type=S3
   1, 302, 778, 630
   2, 193, 209, 391
   3, 225, 638, 631
   4, 107, 307, 524
   5,  85, 819, 110
   6,  70, 617, 408
   7, 277, 337, 574
   8,  18, 263, 838
   9, 109,  95, 779
  10, 151, 471, 875
  11, 591, 568, 522
  12, 738,  88, 208
  13, 282,   8, 394
  14, 361, 107, 256
  15, 360, 139,  42
  16, 854, 774,  77
  17, 256, 106, 369
  18, 121, 826, 567
  19,  64, 194, 326
  20, 360,  60, 359
** ... 1702 like lines cut
*Nset, nset=Set-FIX
  23,  26,  51,  58,  65,  67,  72,  77,  86,  91,  97, 101, 109, 110, 111, 113
 115, 117, 118, 119, 120, 121, 122, 123, 133, 139, 140, 150, 155, 162, 166, 169
 173, 175, 176, 177, 191, 195, 205, 216, 229, 230, 257, 259, 260, 261, 268, 274
 278, 279, 307, 308, 314, 321, 323, 329, 341, 350, 353, 359, 361, 365, 367, 369
 371, 386, 387, 388, 389, 403, 406, 416, 417, 463, 466, 470, 483, 485, 486, 489
 494, 506, 512, 514, 521, 535, 537, 538, 540, 541, 545, 546, 551, 554, 555, 564
 569, 570, 572, 587, 592, 593, 595, 598, 599, 605
*Elset, elset=Set-ALL, generate
    1,  1722,     1
*Elset, elset=_Surf-OUT_SPOS, internal, generate
    1,  1722,     1
*Surface, type=ELEMENT, name=Surf-OUT
_Surf-OUT_SPOS, SPOS
*Elset, elset=_Surf-INN_SNEG, internal, generate
    1,  1722,     1
*Surface, type=ELEMENT, name=Surf-INN
_Surf-INN_SNEG, SNEG
** Section: Section-DS20
*Shell Section, elset=Set-ALL, material=DRAGONSKIN20-OGDEN
0.001, 5
*End Part
**  
*Part, name=CHEST-RIGHT
*Node
      1, -0.0648330003,   1.23278999,  0.077391997
      2, -0.0940150023,   1.11300004, 0.0486660004
      3, -0.100125998,   1.13310003, 0.0440139994
      4, 0.0199999996,      1.21875, 0.0726850033
      5,    -0.113991,   1.24981999, 0.0512409993
      6, -0.126392007,   1.23598003,  0.045003999
      7, -0.126450002,   1.19195998, 0.00161399995
      8, -0.129185006,   1.21809995, 0.0295240004
      9, -0.128830001,   1.21467996, 0.0255459994
     10, -0.108540997,   1.14491999,  0.033098001
     11,    -0.124945,   1.16658998, -0.00669299997
     12, -0.116582997,   1.11550999, 0.000661000027
     13, -0.122741997,   1.14104998, -0.0115379998
     14,    -0.128454,   1.22517002, 0.0403539985
     15, -0.125661999,   1.16102004, -0.0115320003
     16, -0.124968998,   1.15588999, -0.0115400003
     17,    -0.120577,   1.12857997, -0.0103089996
     18, -0.126440004,   1.18247998, -0.00461900001
     19, -0.128207996,   1.21159995, 0.0221549999
     20, -0.127060995,   1.20492005,     0.014951
** ... 963 like lines cut
*Element, type=S3
   1,  43,  68,  31
   2,  58, 498, 532
   3,   6, 227, 811
   4, 172, 774, 124
   5, 204, 246, 201
   6, 163, 217, 535
   7, 210, 273, 810
   8, 295, 100, 250
   9, 478, 225, 769
  10, 508, 330, 295
  11, 592, 593,  17
  12,  41,  42, 762
  13, 292, 225, 478
  14, 191, 414,  24
  15, 273, 855, 486
  16, 598,  65, 258
  17,  45,   6, 460
  18,  88, 488, 631
  19, 230, 615, 845
  20, 219, 286, 278
** ... 1838 like lines cut
*Nset, nset=Set-FIX
   2,   4,   5,   6,   7,   8,   9,  12,  13,  14,  15,  16,  17,  18,  19,  20
  21,  22,  23,  25,  26,  27,  28,  29,  30,  31,  32,  33,  34,  35,  36,  37
  38,  39,  40,  41,  42,  43,  44,  45,  57,  58,  59,  61,  65,  66,  67,  69
 105, 107, 137, 139, 140, 150, 151, 152, 153, 154, 155, 156, 157, 158, 181, 199
 227, 241, 242, 264, 297, 303, 313, 317, 321, 334, 335, 337, 338, 339, 340, 345
 393, 426, 435, 437, 480, 481, 486, 498, 505, 511, 512, 556, 570, 592, 598, 601
 616, 622, 632, 677, 678, 693, 696, 710, 712, 715
*Elset, elset=Set-ALL, generate
    1,  1858,     1
*Elset, elset=_Surf-INN_SNEG, internal, generate
    1,  1858,     1
*Surface, type=ELEMENT, name=Surf-INN
_Surf-INN_SNEG, SNEG
*Elset, elset=_Surf-OUT_SPOS, internal, generate
    1,  1858,     1
*Surface, type=ELEMENT, name=Surf-OUT
_Surf-OUT_SPOS, SPOS
** Section: Section-DS20
*Shell Section, elset=Set-ALL, material=DRAGONSKIN20-OGDEN
0.001, 5
*End Part
**  
*Part, name=MEMBRANE
*Node
      1,     0.129207,   1.29999995, 0.0264359992
      2, 0.0757720023,   1.21525002, 0.0837249979
      3,  0.104548998,   1.20888996, 0.0818260014
      4,  0.131087005,   1.10713995, 0.0417790003
      5,  0.144541994,   1.10687995, 0.0195310004
      6, 0.0377740003,   1.17962003, 0.0833090022
      7,  0.100626998,   1.25565004, 0.0631060004
      8, 0.0978149995,   1.17882001, 0.0859839991
      9, -0.0520690009,   1.27593005,  0.062047001
     10, -0.103685997,  0.976963997, 0.0576669984
     11, -0.0949729979,   1.24400997, 0.0695739985
     12, -0.0093080001,   1.26380002,  0.069310002
     13, 0.0499089994,   1.21068001, 0.0825830027
     14, 0.0434990004,   1.29096997, 0.0566200018
     15, 0.0722829998,   1.29999995, 0.0468010008
     16,  0.167156994,   1.21451998, 0.0331239998
     17,  0.167529002,   1.20922995, 0.0232529994
     18, 0.0395709984,   1.29999995, 0.0532650016
     19, 0.0691429973,   1.14260995, 0.0854189992
     20,  0.156945005,   1.15842998, 0.00868500024
** ... 1542 like lines cut
*Element, type=S3
   1, 1026,   46,  976
   2,  572, 1135,   83
   3,   78,   77, 1429
   4,  280,  760, 1512
   5,  222,  117,  333
   6, 1388,   89, 1387
   7,  132,  403,  131
   8,  114,   56,  637
   9,  310,  113,  384
  10,  597,   88,  872
  11,  118,  901, 1438
  12,  396,  332,  565
  13,  897, 1007, 1272
  14,  916,  119,  338
  15,   45, 1132, 1168
  16,  150,  817, 1395
  17, 1241,  643, 1330
  18,  531,  350, 1314
  19,  314,   33, 1000
  20,  803,  962,  972
** ... 2949 like lines cut
*Nset, nset=Set-FIX
    1,   15,   16,   17,   18,   26,   32,   35,   37,   38,   39,   40,   43,   45,   46,   48
   49,   52,   56,   59,   63,   65,   66,   70,   73,   74,   76,   77,   78,   80,   81,   82
   83,   84,   85,   86,   87,   88,   89,   90,   91,   93,   94,   95,   96,   97,   98,   99
  100,  101,  102,  103,  104,  105,  106,  107,  108,  109,  110,  111,  112,  113,  114,  115
  116,  117,  118,  119,  120,  121,  122,  123,  124,  125,  126,  127,  128,  129,  130,  131
  132,  133,  134,  135,  136,  137,  138,  139,  222,  267,  268,  270,  271,  272,  273,  274
  275,  276,  277,  278,  279,  280,  281,  282,  283,  284,  285,  287,  289,  290,  291,  310
  313,  326,  456,  457,  458,  459,  460,  491,  536,  628,  635,  718,  751,  752,  754,  756
  758,  760,  762,  764,  765,  769,  772,  775,  776,  786,  787,  823,  860,  873,  882,  901
  916,  928,  961,  975,  976,  979,  989,  999, 1010
*Elset, elset=Set-ALL, generate
    1,  2969,     1
*Elset, elset=_Surf-INN_SNEG, internal, generate
    1,  2969,     1
*Surface, type=ELEMENT, name=Surf-INN
_Surf-INN_SNEG, SNEG
*Elset, elset=_Surf-OUT_SPOS, internal, generate
    1,  2969,     1
*Surface, type=ELEMENT, name=Surf-OUT
_Surf-OUT_SPOS, SPOS
** Section: Section-EF0030
*Shell Section, elset=Set-ALL, material=Ecoflex0030-OGDEN
0.001, 5
*End Part
**  
*Part, name=WAIST-DOWN
*Node
      1,  0.145630002,  0.949133992, 0.0183320008
      2, -0.0158179998,   1.01300001, 0.0889459997
      3, -0.122758999,  0.870024025, 0.0563240014
      4, -0.134219006,  0.909201026, 0.0168009996
      5, -0.124020003,  0.980579972, -0.00344099989
      6, -0.133312002,  0.870005012, 0.0400849991
      7, -0.127942994,  0.954892993, -0.00480500003
      8, 0.0544920005,  0.946380019, 0.0873100013
      9,  0.137373999,   1.01300001,      0.02159
     10,  0.160044998,  0.870332003, 0.0145979999
     11,  0.157931998,  0.870002985, 0.0197790004
     12, 0.0470939986,  0.870000005, 0.0878849998
     13, -0.0441850014,   1.01300001, 0.0806740001
     14, 0.0147770001,   1.01300001, 0.0901930034
     15,  0.160271004,  0.877047002, 0.00805199984
     16,  0.155983001,  0.932290971, -0.00407700008
     17,  0.151231006,  0.957379997, -0.0043159998
     18,  0.140883997,   1.01300001, 0.0136940004
     19, -0.116839997,   1.01300001, 0.0106910001
     20, -0.138377994,  0.875819027, 0.00406000018
** ... 986 like lines cut
*Element, type=S3
   1,  476,  272,  291
   2,  313, 1002,  610
   3,   86,  779,  338
   4,  121,  199,  249
   5,  357,  358,   43
   6,  524,   47,  525
   7,  314,  524,  195
   8,  198,  360,  116
   9,  188,  366,  271
  10,  919,   50,  235
  11,  493,  192,    1
  12,  543,  510,  874
  13,  199,   45,  908
  14,  206,  266,  217
  15,   45,  130,  382
  16,  113,  191,  291
  17,  119,   58,  410
  18,  369,  607,  411
  19,  136,  881,  235
  20,  187,  354,  929
** ... 1864 like lines cut
*Nset, nset=Set-FIX
   2,   3,   5,   6,   7,   9,  10,  11,  12,  13,  14,  15,  16,  17,  18,  19
  20,  21,  22,  23,  39,  40,  41,  42,  43,  44,  65,  66,  68, 104, 109, 115
 117, 141, 142, 143, 144, 145, 147, 148, 150, 151, 153, 157, 161, 185, 189, 203
 311, 343, 344, 348, 357, 359, 366, 377, 380, 385, 423, 435, 448, 449, 450, 453
 456, 459, 460, 461, 464, 467, 469, 472, 477, 484, 488, 489, 491, 495, 508, 527
 530, 540, 541, 551, 554, 555, 556, 557, 561, 564, 565, 567, 572, 587, 588, 609
 621, 622, 639, 640, 641, 642, 643, 644, 645, 646, 650, 651, 652, 653, 658, 659
 660, 661, 662, 663, 665, 667, 668, 673, 674, 675, 676, 678, 679, 680
*Elset, elset=Set-ALL, generate
    1,  1884,     1
*Elset, elset=_Surf-OUT_SPOS, internal, generate
    1,  1884,     1
*Surface, type=ELEMENT, name=Surf-OUT
_Surf-OUT_SPOS, SPOS
*Elset, elset=_Surf-INN_SNEG, internal, generate
    1,  1884,     1
*Surface, type=ELEMENT, name=Surf-INN
_Surf-INN_SNEG, SNEG
** Section: Section-DS20
*Shell Section, elset=Set-ALL, material=DRAGONSKIN20-OGDEN
0.001, 5
*End Part
**  
*Part, name=WAIST-MIDDLE
*Node
      1, 0.0897670016,   1.03645003, 0.0680849999
      2,  0.144093007,  0.996360004, 0.0183959994
      3,  0.105575003,   1.03752005, 0.0568379983
      4,  0.107481003,   1.06299996, 0.0573550016
      5,  0.127151996,  0.967720985, 0.0450530015
      6, -0.00391300023,   1.04929996, 0.0930619985
      7, -0.0848840028,  0.955411017, 0.0699300021
      8, -0.0624979995,   1.03416002, 0.0739300027
      9, -0.0887660012,   1.03217995, 0.0564879999
     10, -0.0941490009,      1.01852, 0.0535769984
     11, -0.0126919998,   0.96272099, 0.0951540023
     12,  0.121096998,  0.967745006, 0.0505260006
     13, -0.101553001,  0.976787984, 0.0562609993
     14, -0.0520110019,     0.995049, 0.0813350007
     15, 0.0555289984,   0.99533999, 0.0846469998
     16, -0.121918999,  0.952371001, 0.0327909999
     17, 0.0488919988,  0.990549028, 0.0871110037
     18, -0.0569880009,   1.00814998, 0.0778219998
     19, -0.052790001,  0.955106974, 0.0850740001
     20, 0.0563159995,  0.941003025, 0.0892319977
** ... 804 like lines cut
*Element, type=S3
   1, 561, 106,  89
   2,   5, 690, 172
   3, 185, 346, 301
   4, 367, 275,  14
   5, 159, 241, 311
   6, 312, 225,   8
   7, 308, 788, 461
   8, 330, 331, 522
   9, 267, 200, 803
  10, 368, 269, 369
  11, 233, 745, 298
  12, 460,  14, 304
  13, 354, 145, 555
  14, 303, 148, 291
  15, 398, 345, 344
  16, 235, 185,  26
  17, 166, 800, 410
  18, 292, 441, 771
  19, 307, 161, 238
  20, 413, 650, 412
** ... 1505 like lines cut
*Nset, nset=Set-FIX
   4,  20,  22,  23,  24,  26,  27,  30,  31,  32,  34,  35,  45,  53,  60,  61
  62,  63,  64,  65,  66,  69,  70,  71,  72,  73,  74,  75,  76,  77,  78,  79
  80,  81,  82,  83,  84,  85,  86,  87,  96,  97,  98, 142, 143, 152, 153, 155
 156, 160, 161, 162, 166, 174, 179, 180, 181, 252, 253, 254, 255, 263, 266, 267
 280, 283, 287, 288, 289, 325, 350, 352, 373, 376, 409, 410, 413, 415, 416, 421
 424, 427, 430, 431, 432, 433, 454, 492, 508, 524, 527, 536, 541, 542, 545, 546
 549, 551, 553, 556, 560, 562, 565, 577, 601, 608, 613, 618, 635, 647, 650, 656
 657, 661, 665, 668, 670, 672, 675, 676, 677
*Elset, elset=Set-ALL, generate
    1,  1525,     1
*Elset, elset=_Surf-OUT_SPOS, internal, generate
    1,  1525,     1
*Surface, type=ELEMENT, name=Surf-OUT
_Surf-OUT_SPOS, SPOS
*Elset, elset=_Surf-INN_SNEG, internal, generate
    1,  1525,     1
*Surface, type=ELEMENT, name=Surf-INN
_Surf-INN_SNEG, SNEG
** Section: Section-DS20
*Shell Section, elset=Set-ALL, material=DRAGONSKIN20-OGDEN
0.001, 5
*End Part
**  
*Part, name=WAIST-UP
*Node
      1,  0.106219001,   1.01999998, 0.0539430007
      2,  0.126460999,   1.10000002, 0.0383610018
      3, 0.0389409997,   1.06593001, 0.0870279968
      4, -0.0704670027,   1.10500002, 0.0713040009
      5, -0.0461999997,   1.01999998, 0.0796609968
      6, 0.0538740009,   1.01999998, 0.0823329985
      7, -0.0549609996,   1.01999998, 0.0757749975
      8,  0.141374007,   1.02117002, 0.00724499999
      9,  0.102172002,   1.10500002, 0.0641340017
     10, -0.0569350012,   1.10500002, 0.0799380019
     11, 0.0929249972,   1.01999998, 0.0631040037
     12, -0.113646001,   1.10260999, 0.00726999994
     13, 0.0106920004,   1.01999998, 0.0903040022
     14, -0.0200180002,   1.01999998, 0.0878959969
     15, -0.0278520007,   1.01999998,     0.085988
     16,    -0.105664,   1.09161997, 0.0269310009
     17, -0.0107720001,   1.10500002, 0.0908150002
     18, -0.0889689997,   1.01999998, 0.0552930012
     19,  0.113094002,   1.10500002, 0.0547540002
     20,     0.124844,   1.10500002, 0.0414699987
** ... 557 like lines cut
*Element, type=S3
   1,  77, 112, 398
   2, 160, 419, 159
   3, 102, 215, 258
   4,  71,   4, 345
   5,  17,  67, 204
   6,  76, 204,  67
   7, 136, 177, 514
   8,  62, 159, 419
   9, 455,  10,  71
  10,  38, 160, 300
  11, 261,  99, 101
  12, 136, 138, 177
  13, 416, 127, 151
  14,  23, 308,  69
  15, 279,  22, 366
  16, 203,  72,  66
  17, 171, 240, 427
  18, 300, 301,  38
  19, 349, 138, 100
  20,  50, 252,  91
** ... 1027 like lines cut
*Nset, nset=Set-FIX
   1,   4,   5,   6,   7,   8,   9,  10,  11,  12,  13,  14,  15,  17,  18,  19
  20,  21,  22,  23,  25,  26,  27,  28,  35,  36,  43,  48,  53,  54,  58,  59
  62,  67,  69,  71,  77,  87,  88,  89,  90,  93,  95,  96,  97,  98, 100, 101
 102, 103, 104, 105, 106, 109, 112, 113, 114, 115, 121, 128, 129, 132, 133, 136
 137, 141, 142, 143, 144, 145, 146, 150, 155, 156, 159, 160, 163, 167, 228, 230
 247, 256, 258, 259, 261, 262, 263, 264, 268, 269, 273, 277, 278, 279, 284, 300
 307, 312, 317, 338, 348, 355, 356, 360, 365
*Elset, elset=Set-ALL, generate
    1,  1047,     1
*Elset, elset=_Surf-OUT_SPOS, internal, generate
    1,  1047,     1
*Surface, type=ELEMENT, name=Surf-OUT
_Surf-OUT_SPOS, SPOS
*Elset, elset=_Surf-INN_SNEG, internal, generate
    1,  1047,     1
*Surface, type=ELEMENT, name=Surf-INN
_Surf-INN_SNEG, SNEG
** Section: Section-DS20
*Shell Section, elset=Set-ALL, material=DRAGONSKIN20-OGDEN
0.001, 5
*End Part
**  
**
** ASSEMBLY
**
*Assembly, name=Assembly
**  
*Instance, name=CHEST-LEFT-1, part=CHEST-LEFT
*End Instance
**  
*Instance, name=CHEST-RIGHT-1, part=CHEST-RIGHT
*End Instance
**  
*Instance, name=MEMBRANE-1, part=MEMBRANE
*End Instance
**  
*Instance, name=WAIST-DOWN-1, part=WAIST-DOWN
*End Instance
**  
*Instance, name=WAIST-MIDDLE-1, part=WAIST-MIDDLE
*End Instance
**  
*Instance, name=WAIST-UP-1, part=WAIST-UP
*End Instance
**  
*Nset, nset=NdE-35-OUT, instance=WAIST-DOWN-1
    1,    2,    8,    9,   13,   14,   18,   19,   21,   22,   23,   25,   26,   27,   28,   30
   32,   33,   34,   36,   39,   42,   43,   47,   49,   50,   53,   54,   57,   58,   62,   65
   66,   70,   75,   77,   78,   80,   81,   82,   83,   84,   89,   93,   94,   95,   97,  106
  110,  112,  113,  117,  119,  122,  123,  132,  133,  134,  136,  137,  138,  139,  140,  142
  143,  147,  149,  150,  151,  153,  154,  155,  156,  159,  164,  167,  172,  175,  176,  177
  186,  191,  195,  196,  197,  200,  201,  202,  203,  210,  213,  214,  215,  216,  222,  223
  224,  225,  226,  230,  231,  232,  233,  235,  236,  238,  239,  244,  245,  248,  251,  252
  253,  256,  257,  258,  259,  261,  268,  270,  272,  275,  279,  282,  283,  285,  286,  289
  290,  291,  293,  294,  295,  296,  300,  302,  306,  309,  310,  312,  313,  314,  317,  321
  325,  330,  339,  340,  341,  342,  345,  346,  349,  353,  356,  357,  358,  361,  362,  363
  364,  367,  368,  369,  371,  375,  384,  385,  386,  387,  391,  392,  393,  394,  395,  397
  400,  402,  403,  406,  408,  409,  410,  411,  414,  415,  416,  421,  422,  427,  430,  434
  437,  439,  445,  446,  447,  451,  452,  462,  463,  464,  465,  472,  476,  477,  478,  480
  482,  483,  485,  490,  493,  494,  496,  498,  499,  500,  502,  503,  510,  512,  513,  519
  520,  521,  522,  523,  524,  525,  526,  528,  529,  530,  531,  532,  533,  538,  539,  540
  543,  548,  552,  555,  556,  559,  563,  568,  571,  572,  573,  576,  577,  581,  582,  583
  584,  586,  589,  590,  593,  594,  595,  596,  601,  605,  607,  608,  610,  612,  618,  620
  623,  625,  629,  630,  631,  632,  633,  634,  635,  636,  648,  650,  651,  658,  663,  664
  665,  669,  670,  673,  674,  675,  676,  678,  680,  681,  682,  684,  687,  688,  692,  693
  694,  696,  698,  704,  705,  706,  711,  712,  713,  714,  716,  717,  718,  719,  721,  722
** ... 8 like lines cut
*Nset, nset=NdE-35-OUT, instance=WAIST-UP-1
   1,   5,   6,   7,  11,  13,  14,  15,  18,  27,  29,  30,  31,  33,  34,  35
  37,  40,  44,  45,  48,  49,  50,  55,  56,  59,  60,  63,  65,  70,  74,  78
  79,  81,  85,  87,  89,  91,  97,  98, 102, 109, 110, 113, 115, 116, 121, 130
 135, 141, 142, 143, 144, 145, 146, 147, 148, 150, 152, 154, 155, 156, 157, 158
 165, 166, 169, 170, 171, 172, 173, 175, 178, 179, 180, 182, 183, 184, 185, 188
 190, 191, 193, 196, 198, 199, 202, 207, 208, 210, 211, 213, 214, 215, 216, 221
 222, 223, 226, 231, 232, 233, 234, 237, 238, 239, 240, 243, 245, 246, 247, 252
 255, 258, 265, 266, 267, 268, 271, 272, 275, 277, 280, 283, 286, 287, 292, 294
 296, 297, 298, 304, 305, 307, 315, 317, 319, 320, 321, 325, 326, 328, 331, 332
 334, 338, 339, 340, 341, 342, 343, 344, 347, 350, 351, 353, 354, 356, 357, 358
 359, 362, 367, 370, 372, 373, 374, 375, 377, 380, 381, 384, 385, 386, 387, 388
 389, 390, 392, 393, 394, 395, 396, 397, 406, 411, 412, 413, 414, 417, 420, 421
 427, 428, 429, 432, 433, 434, 436, 437, 438, 444, 447, 448, 452, 453, 454, 456
 462, 465, 466, 467, 468, 469, 471, 472, 475, 478, 483, 487, 488, 489, 492, 494
 496, 500, 501, 502, 507, 508, 509, 512, 513, 516, 517, 519, 522, 523, 524, 527
 530, 534, 535, 539, 540, 543, 544, 546, 547, 548, 552, 557, 558, 559, 560, 562
 563, 564, 576
*Nset, nset=Nde-12345-OUT, instance=WAIST-MIDDLE-1, generate
   1,  824,    1
*Nset, nset=Nde-12345-OUT, instance=WAIST-UP-1
   2,   3,   4,   9,  10,  12,  16,  17,  19,  20,  21,  22,  23,  24,  25,  26
  28,  32,  36,  38,  39,  41,  42,  43,  46,  47,  51,  52,  53,  54,  57,  58
  61,  62,  64,  66,  67,  68,  69,  71,  72,  73,  75,  76,  77,  80,  83,  84
  86,  88,  90,  92,  93,  94,  95,  96,  99, 100, 101, 103, 104, 105, 106, 107
 108, 111, 112, 114, 117, 118, 119, 120, 122, 123, 125, 126, 127, 128, 129, 131
 132, 133, 134, 136, 137, 138, 139, 140, 149, 151, 153, 159, 160, 161, 162, 163
 164, 167, 168, 174, 176, 177, 181, 186, 187, 189, 192, 194, 197, 200, 201, 203
 204, 205, 206, 209, 212, 217, 218, 219, 220, 224, 225, 227, 228, 229, 230, 235
 236, 241, 242, 244, 248, 249, 250, 251, 253, 254, 256, 257, 259, 260, 261, 262
 263, 264, 269, 270, 273, 276, 278, 279, 281, 284, 285, 288, 289, 290, 291, 293
 295, 300, 301, 302, 303, 306, 308, 309, 310, 311, 312, 313, 314, 316, 318, 322
 324, 327, 329, 333, 335, 336, 337, 345, 346, 348, 349, 352, 355, 360, 361, 363
 364, 365, 366, 368, 369, 371, 376, 378, 379, 382, 383, 391, 399, 400, 401, 402
 404, 405, 407, 408, 409, 415, 416, 418, 419, 422, 423, 424, 425, 426, 430, 431
 435, 439, 440, 441, 442, 443, 445, 446, 449, 450, 455, 457, 458, 459, 460, 461
 463, 464, 470, 473, 474, 476, 477, 479, 480, 482, 485, 486, 490, 491, 495, 497
 498, 499, 503, 505, 506, 510, 511, 514, 515, 518, 521, 525, 526, 528, 529, 531
 532, 533, 536, 537, 538, 541, 542, 545, 549, 550, 551, 553, 554, 555, 556, 561
 565, 566, 567, 568, 569, 570, 571, 572, 573, 574, 575, 577
*Nset, nset=Nde-12345-OUT, instance=CHEST-LEFT-1, generate
   1,  915,    1
*Nset, nset=Nde-12345-OUT, instance=WAIST-DOWN-1
    3,    4,    5,    6,    7,   10,   11,   12,   15,   16,   17,   20,   29,   31,   35,   37
   38,   40,   41,   44,   45,   46,   48,   51,   52,   55,   56,   59,   60,   61,   63,   64
   67,   68,   69,   71,   72,   73,   74,   76,   79,   85,   86,   87,   88,   90,   91,   92
   96,   98,   99,  100,  101,  102,  103,  104,  105,  107,  108,  109,  111,  114,  115,  116
  118,  120,  121,  124,  125,  126,  127,  128,  129,  130,  131,  135,  141,  144,  145,  146
  148,  152,  157,  160,  161,  162,  163,  165,  166,  168,  169,  170,  171,  173,  174,  178
  179,  180,  181,  182,  183,  184,  185,  187,  188,  189,  190,  193,  194,  198,  199,  204
  205,  206,  207,  208,  209,  211,  212,  217,  218,  219,  220,  221,  227,  228,  229,  234
  237,  240,  241,  242,  243,  246,  247,  249,  250,  254,  255,  260,  262,  263,  264,  265
  266,  267,  269,  271,  273,  276,  277,  278,  280,  281,  284,  287,  288,  292,  297,  298
  299,  301,  303,  304,  305,  307,  308,  311,  315,  316,  319,  320,  322,  323,  324,  326
  327,  329,  331,  332,  333,  334,  335,  336,  337,  338,  343,  344,  347,  350,  351,  352
  354,  355,  359,  360,  365,  366,  370,  372,  373,  374,  376,  377,  378,  379,  380,  381
  382,  383,  388,  389,  390,  396,  398,  399,  401,  404,  405,  407,  412,  413,  417,  418
  419,  420,  423,  424,  425,  426,  428,  429,  432,  433,  435,  438,  440,  441,  442,  443
  444,  448,  449,  450,  453,  454,  455,  456,  457,  458,  459,  460,  461,  467,  468,  469
  470,  471,  473,  474,  475,  479,  481,  484,  486,  487,  488,  489,  491,  492,  495,  497
  501,  504,  506,  507,  508,  509,  511,  514,  515,  516,  517,  518,  527,  535,  536,  537
  541,  542,  544,  545,  546,  547,  549,  550,  551,  553,  554,  557,  558,  560,  561,  562
  564,  565,  566,  567,  569,  570,  574,  575,  578,  579,  580,  585,  587,  588,  591,  592
** ... 14 like lines cut
*Nset, nset=Nde-12345-OUT, instance=CHEST-RIGHT-1
   1,   2,   3,   4,   5,   6,   7,  10,  11,  12,  13,  14,  15,  16,  17,  18
  19,  20,  21,  22,  23,  24,  25,  27,  28,  29,  30,  31,  32,  33,  34,  35
  36,  37,  38,  39,  40,  41,  42,  43,  44,  45,  46,  47,  48,  49,  50,  51
  52,  53,  54,  55,  56,  57,  58,  59,  60,  61,  62,  63,  64,  65,  66,  67
  68,  69,  70,  71,  72,  73,  74,  75,  76,  77,  78,  79,  80,  81,  82,  83
  84,  85,  86,  87,  88,  89,  90,  91,  92,  93,  94,  95,  96,  97,  98,  99
 100, 101, 102, 103, 104, 105, 106, 107, 108, 109, 110, 111, 112, 113, 114, 115
 116, 117, 118, 119, 120, 121, 122, 123, 124, 125, 126, 127, 128, 129, 130, 131
 132, 133, 134, 135, 136, 137, 138, 139, 140, 141, 142, 143, 144, 145, 146, 147
 148, 149, 150, 151, 152, 153, 154, 155, 156, 157, 158, 159, 160, 161, 162, 163
 164, 165, 166, 167, 168, 169, 170, 171, 172, 173, 174, 175, 176, 177, 178, 179
 180, 181, 182, 183, 184, 185, 186, 187, 188, 189, 190, 191, 192, 193, 194, 195
 196, 197, 198, 199, 200, 201, 202, 203, 204, 205, 206, 207, 208, 209, 210, 211
 212, 213, 214, 215, 216, 217, 218, 219, 220, 221, 222, 223, 224, 225, 226, 227
 228, 229, 230, 231, 232, 233, 234, 235, 236, 237, 238, 239, 240, 241, 242, 243
 244, 245, 246, 247, 248, 249, 250, 251, 252, 253, 254, 255, 256, 257, 258, 259
 260, 261, 262, 263, 264, 265, 266, 267, 268, 269, 270, 271, 272, 273, 274, 275
 276, 277, 278, 279, 280, 281, 282, 283, 284, 285, 286, 287, 288, 289, 290, 291
 292, 293, 294, 295, 296, 297, 298, 299, 300, 301, 302, 303, 304, 305, 306, 307
 308, 309, 310, 311, 312, 313, 314, 315, 316, 317, 318, 319, 320, 321, 322, 323
** ... 42 like lines cut
*Nset, nset=Set-20, instance=CHEST-LEFT-1
  23,  26,  51,  58,  65,  67,  72,  77,  86,  91,  97, 101, 109, 110, 111, 113
 115, 117, 118, 119, 120, 121, 122, 123, 133, 139, 140, 150, 155, 162, 166, 169
 173, 175, 176, 177, 191, 195, 205, 216, 229, 230, 257, 259, 260, 261, 268, 274
 278, 279, 307, 308, 314, 321, 323, 329, 341, 350, 353, 359, 361, 365, 367, 369
 371, 386, 387, 388, 389, 403, 406, 416, 417, 463, 466, 470, 483, 485, 486, 489
 494, 506, 512, 514, 521, 535, 537, 538, 540, 541, 545, 546, 551, 554, 555, 564
 569, 570, 572, 587, 592, 593, 595, 598, 599, 605
*Nset, nset=Set-20, instance=CHEST-RIGHT-1
   2,   4,   5,   6,   7,   8,   9,  12,  13,  14,  15,  16,  17,  18,  19,  20
  21,  22,  23,  25,  26,  27,  28,  29,  30,  31,  32,  33,  34,  35,  36,  37
  38,  39,  40,  41,  42,  43,  44,  45,  57,  58,  59,  61,  65,  66,  67,  69
 105, 107, 137, 139, 140, 150, 151, 152, 153, 154, 155, 156, 157, 158, 181, 199
 227, 241, 242, 264, 297, 303, 313, 317, 321, 334, 335, 337, 338, 339, 340, 345
 393, 426, 435, 437, 480, 481, 486, 498, 505, 511, 512, 556, 570, 592, 598, 601
 616, 622, 632, 677, 678, 693, 696, 710, 712, 715
*Nset, nset=Set-20, instance=MEMBRANE-1
    1,   15,   16,   17,   18,   26,   35,   37,   38,   39,   40,   43,   45,   46,   48,   49
   66,   73,   74,   76,   80,   81,   82,   83,   84,   85,   86,   88,   89,   93,   94,   96
   97,   98,   99,  100,  102,  103,  104,  105,  106,  107,  108,  109,  110,  111,  112,  113
  119,  126,  127,  128,  129,  130,  131,  132,  133,  134,  135,  138,  139,  222,  267,  268
  270,  271,  272,  273,  274,  275,  276,  277,  278,  279,  280,  281,  283,  287,  289,  290
  291,  310,  326,  457,  458,  460,  536,  628,  718,  751,  752,  754,  756,  758,  760,  762
  769,  772,  775,  787,  823,  860,  882,  916,  928,  961,  975,  976,  979,  989, 1010
*Nset, nset=Set-20, instance=WAIST-MIDDLE-1
  53,  69,  78,  79,  80,  81,  82,  83,  84,  85,  86, 545, 546, 647, 665
*Nset, nset=Set-20, instance=WAIST-DOWN-1
   2,   3,   5,   6,   7,   9,  10,  11,  12,  13,  14,  15,  16,  17,  18,  19
  20,  21,  22,  23,  39,  40,  41,  42,  43,  44,  65,  66,  68, 104, 109, 115
 117, 141, 142, 143, 144, 145, 147, 148, 150, 151, 153, 157, 161, 185, 189, 203
 311, 343, 344, 348, 357, 359, 366, 377, 380, 385, 423, 435, 448, 449, 450, 453
 456, 459, 460, 461, 464, 467, 469, 472, 477, 484, 488, 489, 491, 495, 508, 527
 530, 540, 541, 551, 554, 555, 556, 557, 561, 564, 565, 567, 572, 587, 588, 609
 621, 622, 639, 640, 641, 642, 643, 644, 645, 646, 650, 651, 652, 653, 658, 659
 660, 661, 662, 663, 665, 667, 668, 673, 674, 675, 676, 678, 679, 680
*Nset, nset=Set-20, instance=WAIST-UP-1
   1,   4,   5,   6,   7,   8,   9,  10,  11,  12,  13,  14,  15,  17,  18,  19
  20,  21,  22,  23,  25,  26,  27,  28,  35,  36,  43,  48,  53,  54,  58,  59
  62,  67,  69,  71,  77,  87,  88,  89,  90,  93,  95,  96,  97,  98, 100, 101
 102, 103, 104, 105, 106, 109, 112, 113, 114, 115, 121, 128, 129, 132, 133, 136
 137, 141, 142, 143, 144, 145, 146, 150, 155, 156, 159, 160, 163, 167, 228, 230
 247, 256, 258, 259, 261, 262, 263, 264, 268, 269, 273, 277, 278, 279, 284, 300
 307, 312, 317, 338, 348, 355, 356, 360, 365
*Nset, nset=Set-21, instance=CHEST-LEFT-1
  23,  26,  51,  58,  65,  67,  72,  77,  86,  91,  97, 101, 109, 110, 111, 113
 115, 117, 118, 119, 120, 121, 122, 123, 133, 139, 140, 150, 155, 162, 166, 169
 173, 175, 176, 177, 191, 195, 205, 216, 229, 230, 257, 259, 260, 261, 268, 274
 278, 279, 307, 308, 314, 321, 323, 329, 341, 350, 353, 359, 361, 365, 367, 369
 371, 386, 387, 388, 389, 403, 406, 416, 417, 463, 466, 470, 483, 485, 486, 489
 494, 506, 512, 514, 521, 535, 537, 538, 540, 541, 545, 546, 551, 554, 555, 564
 569, 570, 572, 587, 592, 593, 595, 598, 599, 605
*Nset, nset=Set-21, instance=CHEST-RIGHT-1
   2,   4,   5,   6,   7,   8,   9,  12,  13,  14,  15,  16,  17,  18,  19,  20
  21,  22,  23,  25,  26,  27,  28,  29,  30,  31,  32,  33,  34,  35,  36,  37
  38,  39,  40,  41,  42,  43,  44,  45,  57,  58,  59,  61,  65,  66,  67,  69
 105, 107, 137, 139, 140, 150, 151, 152, 153, 154, 155, 156, 157, 158, 181, 199
 227, 241, 242, 264, 297, 303, 313, 317, 321, 334, 335, 337, 338, 339, 340, 345
 393, 426, 435, 437, 480, 481, 486, 498, 505, 511, 512, 556, 570, 592, 598, 601
 616, 622, 632, 677, 678, 693, 696, 710, 712, 715
*Nset, nset=Set-21, instance=MEMBRANE-1
    1,   15,   16,   17,   18,   26,   35,   37,   38,   39,   40,   43,   45,   46,   48,   49
   66,   73,   74,   76,   80,   81,   82,   83,   84,   85,   86,   88,   89,   93,   94,   96
   97,   98,   99,  100,  102,  103,  104,  105,  106,  107,  108,  109,  110,  111,  112,  113
  119,  126,  127,  128,  129,  130,  131,  132,  133,  134,  135,  138,  139,  222,  267,  268
  270,  271,  272,  273,  274,  275,  276,  277,  278,  279,  280,  281,  283,  287,  289,  290
  291,  310,  326,  457,  458,  460,  536,  628,  718,  751,  752,  754,  756,  758,  760,  762
  769,  772,  775,  787,  823,  860,  882,  916,  928,  961,  975,  976,  979,  989, 1010
*Nset, nset=Set-21, instance=WAIST-DOWN-1
   2,   3,   5,   6,   7,   9,  10,  11,  12,  13,  14,  15,  16,  17,  18,  19
  20,  21,  22,  23,  39,  40,  41,  42,  43,  44,  65,  66,  68, 104, 109, 115
 117, 141, 142, 143, 144, 145, 147, 148, 150, 151, 153, 157, 161, 185, 189, 203
 311, 343, 344, 348, 357, 359, 366, 377, 380, 385, 423, 435, 448, 449, 450, 453
 456, 459, 460, 461, 464, 467, 469, 472, 477, 484, 488, 489, 491, 495, 508, 527
 530, 540, 541, 551, 554, 555, 556, 557, 561, 564, 565, 567, 572, 587, 588, 609
 621, 622, 639, 640, 641, 642, 643, 644, 645, 646, 650, 651, 652, 653, 658, 659
 660, 661, 662, 663, 665, 667, 668, 673, 674, 675, 676, 678, 679, 680
*Nset, nset=Set-21, instance=WAIST-UP-1
   1,   4,   5,   6,   7,   8,   9,  10,  11,  12,  13,  14,  15,  17,  18,  19
  20,  21,  22,  23,  25,  26,  27,  28,  35,  36,  43,  48,  53,  54,  58,  59
  62,  67,  69,  71,  77,  87,  88,  89,  90,  93,  95,  96,  97,  98, 100, 101
 102, 103, 104, 105, 106, 109, 112, 113, 114, 115, 121, 128, 129, 132, 133, 136
 137, 141, 142, 143, 144, 145, 146, 150, 155, 156, 159, 160, 163, 167, 228, 230
 247, 256, 258, 259, 261, 262, 263, 264, 268, 269, 273, 277, 278, 279, 284, 300
 307, 312, 317, 338, 348, 355, 356, 360, 365
*Nset, nset=Set-22, instance=CHEST-LEFT-1
  23,  26,  51,  58,  65,  67,  72,  77,  86,  91,  97, 101, 109, 110, 111, 113
 115, 117, 118, 119, 120, 121, 122, 123, 133, 139, 140, 150, 155, 162, 166, 169
 173, 175, 176, 177, 191, 195, 205, 216, 229, 230, 257, 259, 260, 261, 268, 274
 278, 279, 307, 308, 314, 321, 323, 329, 341, 350, 353, 359, 361, 365, 367, 369
 371, 386, 387, 388, 389, 403, 406, 416, 417, 463, 466, 470, 483, 485, 486, 489
 494, 506, 512, 514, 521, 535, 537, 538, 540, 541, 545, 546, 551, 554, 555, 564
 569, 570, 572, 587, 592, 593, 595, 598, 599, 605
*Nset, nset=Set-22, instance=CHEST-RIGHT-1
   2,   4,   5,   6,   7,   8,   9,  12,  13,  14,  15,  16,  17,  18,  19,  20
  21,  22,  23,  25,  26,  27,  28,  29,  30,  31,  32,  33,  34,  35,  36,  37
  38,  39,  40,  41,  42,  43,  44,  45,  57,  58,  59,  61,  65,  66,  67,  69
 105, 107, 137, 139, 140, 150, 151, 152, 153, 154, 155, 156, 157, 158, 181, 199
 227, 241, 242, 264, 297, 303, 313, 317, 321, 334, 335, 337, 338, 339, 340, 345
 393, 426, 435, 437, 480, 481, 486, 498, 505, 511, 512, 556, 570, 592, 598, 601
 616, 622, 632, 677, 678, 693, 696, 710, 712, 715
*Nset, nset=Set-22, instance=MEMBRANE-1
    1,   15,   16,   17,   18,   26,   32,   35,   37,   38,   39,   40,   43,   45,   46,   48
   49,   52,   56,   59,   63,   65,   66,   70,   73,   74,   76,   77,   78,   80,   81,   82
   83,   84,   85,   86,   87,   88,   89,   90,   91,   93,   94,   95,   96,   97,   98,   99
  100,  101,  102,  103,  104,  105,  106,  107,  108,  109,  110,  111,  112,  113,  114,  115
  116,  117,  118,  119,  120,  121,  122,  123,  124,  125,  126,  127,  128,  129,  130,  131
  132,  133,  134,  135,  136,  137,  138,  139,  222,  267,  268,  270,  271,  272,  273,  274
  275,  276,  277,  278,  279,  280,  281,  282,  283,  284,  285,  287,  289,  290,  291,  310
  313,  326,  456,  457,  458,  459,  460,  491,  536,  628,  635,  718,  751,  752,  754,  756
  758,  760,  762,  764,  765,  769,  772,  775,  776,  786,  787,  823,  860,  873,  882,  901
  916,  928,  961,  975,  976,  979,  989,  999, 1010
*Nset, nset=Set-22, instance=WAIST-DOWN-1
   2,   3,   5,   6,   7,   9,  10,  11,  12,  13,  14,  15,  16,  17,  18,  19
  20,  21,  22,  23,  39,  40,  41,  42,  43,  44,  65,  66,  68, 104, 109, 115
 117, 141, 142, 143, 144, 145, 147, 148, 150, 151, 153, 157, 161, 185, 189, 203
 311, 343, 344, 348, 357, 359, 366, 377, 380, 385, 423, 435, 448, 449, 450, 453
 456, 459, 460, 461, 464, 467, 469, 472, 477, 484, 488, 489, 491, 495, 508, 527
 530, 540, 541, 551, 554, 555, 556, 557, 561, 564, 565, 567, 572, 587, 588, 609
 621, 622, 639, 640, 641, 642, 643, 644, 645, 646, 650, 651, 652, 653, 658, 659
 660, 661, 662, 663, 665, 667, 668, 673, 674, 675, 676, 678, 679, 680
*Nset, nset=Set-22, instance=WAIST-UP-1
   1,   4,   5,   6,   7,   8,   9,  10,  11,  12,  13,  14,  15,  17,  18,  19
  20,  21,  22,  23,  25,  26,  27,  28,  35,  36,  43,  48,  53,  54,  58,  59
  62,  67,  69,  71,  77,  87,  88,  89,  90,  93,  95,  96,  97,  98, 100, 101
 102, 103, 104, 105, 106, 109, 112, 113, 114, 115, 121, 128, 129, 132, 133, 136
 137, 141, 142, 143, 144, 145, 146, 150, 155, 156, 159, 160, 163, 167, 228, 230
 247, 256, 258, 259, 261, 262, 263, 264, 268, 269, 273, 277, 278, 279, 284, 300
 307, 312, 317, 338, 348, 355, 356, 360, 365
*Nset, nset=Set-FIX, instance=CHEST-LEFT-1
  23,  26,  51,  58,  65,  67,  72,  77,  86,  91,  97, 101, 109, 110, 111, 113
 115, 117, 118, 119, 120, 121, 122, 123, 133, 139, 140, 150, 155, 162, 166, 169
 173, 175, 176, 177, 191, 195, 205, 216, 229, 230, 257, 259, 260, 261, 268, 274
 278, 279, 307, 308, 314, 321, 323, 329, 341, 350, 353, 359, 361, 365, 367, 369
 371, 386, 387, 388, 389, 403, 406, 416, 417, 463, 466, 470, 483, 485, 486, 489
 494, 506, 512, 514, 521, 535, 537, 538, 540, 541, 545, 546, 551, 554, 555, 564
 569, 570, 572, 587, 592, 593, 595, 598, 599, 605
*Nset, nset=Set-FIX, instance=CHEST-RIGHT-1
   2,   4,   5,   6,   7,   8,   9,  12,  13,  14,  15,  16,  17,  18,  19,  20
  21,  22,  23,  25,  26,  27,  28,  29,  30,  31,  32,  33,  34,  35,  36,  37
  38,  39,  40,  41,  42,  43,  44,  45,  57,  58,  59,  61,  65,  66,  67,  69
 105, 107, 137, 139, 140, 150, 151, 152, 153, 154, 155, 156, 157, 158, 181, 199
 227, 241, 242, 264, 297, 303, 313, 317, 321, 334, 335, 337, 338, 339, 340, 345
 393, 426, 435, 437, 480, 481, 486, 498, 505, 511, 512, 556, 570, 592, 598, 601
 616, 622, 632, 677, 678, 693, 696, 710, 712, 715
*Nset, nset=Set-FIX, instance=MEMBRANE-1
    1,   15,   16,   17,   18,   26,   32,   35,   37,   38,   39,   40,   43,   45,   46,   48
   49,   52,   56,   59,   63,   65,   66,   70,   73,   74,   76,   77,   78,   80,   81,   82
   83,   84,   85,   86,   87,   88,   89,   90,   91,   93,   94,   95,   96,   97,   98,   99
  100,  101,  102,  103,  104,  105,  106,  107,  108,  109,  110,  111,  112,  113,  114,  115
  116,  117,  118,  119,  120,  121,  122,  123,  124,  125,  126,  127,  128,  129,  130,  131
  132,  133,  134,  135,  136,  137,  138,  139,  222,  267,  268,  270,  271,  272,  273,  274
  275,  276,  277,  278,  279,  280,  281,  282,  283,  284,  285,  287,  289,  290,  291,  310
  313,  326,  456,  457,  458,  459,  460,  491,  536,  628,  635,  718,  751,  752,  754,  756
  758,  760,  762,  764,  765,  769,  772,  775,  776,  786,  787,  823,  860,  873,  882,  901
  916,  928,  961,  975,  976,  979,  989,  999, 1010
*Nset, nset=Set-FIX, instance=WAIST-MIDDLE-1
   4,  20,  22,  23,  24,  26,  27,  30,  31,  32,  34,  35,  45,  53,  60,  61
  62,  63,  64,  65,  66,  69,  70,  71,  72,  73,  74,  75,  76,  77,  78,  79
  80,  81,  82,  83,  84,  85,  86,  87,  96,  97,  98, 142, 143, 152, 153, 155
 156, 160, 161, 162, 166, 174, 179, 180, 181, 252, 253, 254, 255, 263, 266, 267
 280, 283, 287, 288, 289, 325, 350, 352, 373, 376, 409, 410, 413, 415, 416, 421
 424, 427, 430, 431, 432, 433, 454, 492, 508, 524, 527, 536, 541, 542, 545, 546
 549, 551, 553, 556, 560, 562, 565, 577, 601, 608, 613, 618, 635, 647, 650, 656
 657, 661, 665, 668, 670, 672, 675, 676, 677
*Nset, nset=Set-FIX, instance=WAIST-DOWN-1
   2,   3,   5,   6,   7,   9,  10,  11,  12,  13,  14,  15,  16,  17,  18,  19
  20,  21,  22,  23,  39,  40,  41,  42,  43,  44,  65,  66,  68, 104, 109, 115
 117, 141, 142, 143, 144, 145, 147, 148, 150, 151, 153, 157, 161, 185, 189, 203
 311, 343, 344, 348, 357, 359, 366, 377, 380, 385, 423, 435, 448, 449, 450, 453
 456, 459, 460, 461, 464, 467, 469, 472, 477, 484, 488, 489, 491, 495, 508, 527
 530, 540, 541, 551, 554, 555, 556, 557, 561, 564, 565, 567, 572, 587, 588, 609
 621, 622, 639, 640, 641, 642, 643, 644, 645, 646, 650, 651, 652, 653, 658, 659
 660, 661, 662, 663, 665, 667, 668, 673, 674, 675, 676, 678, 679, 680
*Nset, nset=Set-FIX, instance=WAIST-UP-1
   1,   4,   5,   6,   7,   8,   9,  10,  11,  12,  13,  14,  15,  17,  18,  19
  20,  21,  22,  23,  25,  26,  27,  28,  35,  36,  43,  48,  53,  54,  58,  59
  62,  67,  69,  71,  77,  87,  88,  89,  90,  93,  95,  96,  97,  98, 100, 101
 102, 103, 104, 105, 106, 109, 112, 113, 114, 115, 121, 128, 129, 132, 133, 136
 137, 141, 142, 143, 144, 145, 146, 150, 155, 156, 159, 160, 163, 167, 228, 230
 247, 256, 258, 259, 261, 262, 263, 264, 268, 269, 273, 277, 278, 279, 284, 300
 307, 312, 317, 338, 348, 355, 356, 360, 365
*Elset, elset=_Surf-12-OUT_SPOS, internal, instance=CHEST-LEFT-1, generate
    1,  1722,     1
*Elset, elset=_Surf-12-OUT_SPOS, internal, instance=CHEST-RIGHT-1, generate
    1,  1858,     1
*Surface, type=ELEMENT, name=Surf-12-OUT
_Surf-12-OUT_SPOS, SPOS
*Elset, elset=_Surf-35-OUT_SPOS, internal, instance=WAIST-DOWN-1, generate
    1,  1884,     1
*Elset, elset=_Surf-35-OUT_SPOS, internal, instance=WAIST-UP-1, generate
    1,  1047,     1
*Surface, type=ELEMENT, name=Surf-35-OUT
_Surf-35-OUT_SPOS, SPOS
*Elset, elset=_Surf-12345-OUT_SPOS, internal, instance=CHEST-RIGHT-1, generate
    1,  1858,     1
*Elset, elset=_Surf-12345-OUT_SPOS, internal, instance=CHEST-LEFT-1, generate
    1,  1722,     1
*Elset, elset=_Surf-12345-OUT_SPOS, internal, instance=WAIST-MIDDLE-1, generate
    1,  1525,     1
*Elset, elset=_Surf-12345-OUT_SPOS, internal, instance=WAIST-DOWN-1
    3,    4,    8,    9,   13,   14,   15,   20,   21,   23,   24,   25,   30,   31,   32,   34
   35,   37,   38,   39,   48,   52,   53,   54,   55,   56,   58,   61,   62,   65,   67,   68
   75,   77,   79,   80,   82,   84,   88,   89,   91,   92,   94,   97,   98,  100,  101,  103
  104,  108,  112,  116,  117,  118,  124,  125,  127,  128,  129,  131,  133,  138,  139,  142
  143,  145,  147,  148,  152,  156,  157,  158,  160,  162,  164,  166,  169,  170,  171,  172
  173,  182,  183,  184,  185,  191,  192,  194,  196,  198,  199,  200,  201,  202,  203,  205
  211,  214,  218,  220,  225,  228,  229,  230,  235,  236,  237,  238,  241,  242,  243,  249
  251,  252,  253,  255,  256,  257,  258,  260,  262,  263,  266,  267,  268,  269,  270,  274
  275,  276,  288,  289,  290,  293,  301,  303,  307,  321,  323,  324,  325,  326,  327,  328
  330,  331,  332,  333,  335,  336,  337,  338,  343,  344,  345,  347,  348,  349,  350,  352
  353,  354,  355,  361,  364,  365,  366,  369,  370,  377,  378,  379,  381,  384,  385,  386
  387,  388,  398,  401,  402,  405,  411,  412,  413,  416,  417,  418,  419,  420,  421,  425
  426,  427,  429,  430,  432,  433,  434,  439,  440,  441,  442,  445,  447,  448,  449,  450
  451,  452,  464,  468,  469,  471,  472,  475,  478,  480,  482,  483,  484,  485,  487,  488
  489,  491,  494,  498,  501,  502,  505,  507,  510,  511,  512,  514,  515,  517,  518,  519
  524,  527,  528,  529,  530,  533,  534,  537,  541,  542,  547,  551,  553,  555,  556,  560
  561,  562,  563,  564,  567,  568,  569,  570,  571,  572,  573,  574,  580,  581,  582,  583
  586,  587,  589,  594,  595,  596,  600,  601,  603,  604,  605,  606,  609,  611,  612,  613
  614,  615,  616,  617,  618,  619,  620,  623,  625,  629,  630,  631,  634,  635,  636,  637
  640,  642,  643,  644,  649,  652,  653,  662,  666,  670,  674,  675,  676,  678,  680,  682
** ... 39 like lines cut
*Elset, elset=_Surf-12345-OUT_SPOS, internal, instance=WAIST-UP-1
    2,    4,    5,    6,    7,    8,    9,   10,   11,   12,   13,   15,   16,   18,   19,   23
   25,   28,   29,   33,   34,   37,   38,   41,   42,   43,   44,   45,   46,   48,   50,   51
   52,   53,   55,   56,   57,   73,   74,   82,   84,   85,   91,   94,   97,   98,   99,  102
  103,  108,  109,  110,  111,  112,  113,  115,  116,  119,  120,  122,  125,  126,  135,  136
  139,  141,  144,  146,  147,  149,  150,  151,  153,  157,  158,  159,  160,  161,  162,  163
  165,  172,  176,  177,  178,  179,  181,  182,  183,  185,  187,  197,  203,  210,  211,  212
  218,  220,  222,  223,  225,  230,  232,  233,  234,  235,  236,  237,  240,  242,  243,  244
  245,  246,  247,  253,  256,  257,  260,  261,  262,  265,  267,  269,  271,  272,  274,  275
  276,  278,  279,  282,  283,  285,  287,  288,  291,  297,  299,  300,  303,  304,  306,  308
  310,  311,  315,  322,  324,  325,  331,  334,  335,  336,  339,  343,  345,  351,  353,  355
  356,  361,  362,  364,  366,  367,  369,  372,  379,  380,  381,  383,  386,  390,  392,  394
  397,  403,  404,  405,  409,  413,  414,  415,  416,  418,  423,  424,  425,  427,  429,  431
  433,  435,  441,  443,  447,  450,  451,  452,  454,  458,  461,  466,  468,  471,  475,  477
  480,  481,  484,  490,  491,  492,  496,  498,  500,  502,  503,  504,  506,  507,  508,  510
  513,  514,  515,  517,  518,  519,  520,  521,  522,  524,  525,  526,  528,  534,  535,  538
  539,  540,  541,  542,  543,  544,  545,  546,  547,  548,  550,  553,  556,  559,  560,  563
  564,  565,  567,  569,  573,  577,  578,  579,  580,  581,  584,  585,  586,  587,  589,  593
  596,  601,  603,  605,  607,  612,  615,  617,  618,  620,  622,  624,  625,  626,  627,  628
  631,  632,  633,  634,  635,  636,  638,  640,  642,  643,  644,  645,  647,  650,  651,  653
  655,  657,  659,  661,  662,  663,  664,  665,  668,  669,  672,  676,  679,  685,  690,  694
** ... 12 like lines cut
*Surface, type=ELEMENT, name=Surf-12345-OUT
_Surf-12345-OUT_SPOS, SPOS
*Surface, type=NODE, name=NdE-35-OUT_CNS_, internal
NdE-35-OUT, 1.
*Surface, type=NODE, name=Nde-12345-OUT_CNS_, internal
Nde-12345-OUT, 1.
*Surface, type=NODE, name=WAIST-MIDDLE-1_Set-FIX_CNS_, internal
WAIST-MIDDLE-1.Set-FIX, 1.
** Constraint: CONSTRAINT-TIE
*Tie, name=CONSTRAINT-TIE, adjust=yes, position tolerance=0.01
WAIST-MIDDLE-1_Set-FIX_CNS_, Surf-35-OUT
*End Assembly
*Amplitude, name=Amp-1
             0.,              0.,              1.,             0.5
*Amplitude, name=Amp-2
             0.,             0.5,              1.,              1.
** 
** MATERIALS
** 
*Material, name=DRAGONSKIN20-OGDEN
*Hyperelastic, n=3, ogden
 1.3077e+06,      1.1087, -2.3497e+06,     -0.0317,  1.2075e+06,     -1.6291,     4.9e-07,          0.
          0.,
*Material, name=Ecoflex0030-OGDEN
*Hyperelastic, n=3, ogden
1887.,   -3.848,   22250.,    0.663,    3574.,    4.225, 2.93e-06,       0.
       0.,
*Material, name=SILICON
*Density
1070.,
*Hyperelastic, mooney-rivlin
125900.,-17900.,     0.
** 
** INTERACTION PROPERTIES
** 
*Surface Interaction, name=INTPROP-1
1.,
*Friction
0.,
*Surface Behavior, no separation, pressure-overclosure=HARD
*Surface Interaction, name=IntProp-2
1.,
*Friction
0.,
** 
** BOUNDARY CONDITIONS
** 
** Name: BC-FIX Type: Symmetry/Antisymmetry/Encastre
*Boundary
Set-22, PINNED
** 
** INTERACTIONS
** 
** Interaction: INT-Nde-35-4
*Contact Pair, interaction=IntProp-2, type=SURFACE TO SURFACE
NdE-35-OUT_CNS_, WAIST-MIDDLE-1.Surf-INN
** Interaction: INT-Nde-12345-6
*Contact Pair, interaction=IntProp-2, type=SURFACE TO SURFACE
Nde-12345-OUT_CNS_, MEMBRANE-1.Surf-INN
** ----------------------------------------------------------------
** 
** STEP: Step-1
** 
*Step, name=Step-1, nlgeom=YES, inc=1000
*Static
0.001, 1., 1e-07, 0.1
*Solution Technique, type=QUASI-NEWTON
** 
** LOADS
** 
** Name: PRS-W-DOWN   Type: Pressure
*Dsload, amplitude=Amp-1
WAIST-DOWN-1.Surf-INN, P, 21.
** Name: PRS-W-UP   Type: Pressure
*Dsload, amplitude=Amp-1
WAIST-UP-1.Surf-INN, P, 1484.38
** 
** OUTPUT REQUESTS
** 
*Restart, write, frequency=0
** 
** FIELD OUTPUT: F-Output-1
** 
*Output, field, variable=PRESELECT
** 
** HISTORY OUTPUT: H-Output-1
** 
*Output, history, variable=PRESELECT
*End Step
** ----------------------------------------------------------------
** 
** STEP: Step-2
** 
*Step, name=Step-2, nlgeom=YES, inc=1000
*Static
0.001, 1., 1e-07, 0.1
*Solution Technique, type=QUASI-NEWTON
** 
** LOADS
** 
** Name: PRS-W-DOWN   Type: Pressure
** Name: PRS-W-MID   Type: Pressure
*Dsload
WAIST-MIDDLE-1.Surf-INN, P, 3100.
** Name: PRS-W-UP   Type: Pressure
** 
** OUTPUT REQUESTS
** 
*Restart, write, frequency=0
** 
** FIELD OUTPUT: F-Output-2
** 
*Output, field, variable=PRESELECT
** 
** HISTORY OUTPUT: H-Output-2
** 
*Output, history, variable=PRESELECT
*End Step
** ----------------------------------------------------------------
** 
** STEP: Step-3
** 
*Step, name=Step-3, nlgeom=YES, inc=1000
*Static
0.001, 1., 1e-07, 0.1
** 
** LOADS
** 
** Name: PRS-W-UP   Type: Pressure
*Dsload, amplitude=Amp-2
WAIST-UP-1.Surf-INN, P, 1484.38
** 
** OUTPUT REQUESTS
** 
*Restart, write, frequency=0
** 
** FIELD OUTPUT: F-Output-2
** 
*Output, field, variable=PRESELECT
** 
** HISTORY OUTPUT: H-Output-2
** 
*Output, history, variable=PRESELECT
*End Step
** ----------------------------------------------------------------
** 
** STEP: Step-4
** 
*Step, name=Step-4, nlgeom=YES, inc=1000
*Static
0.001, 1., 1e-07, 0.1
** 
** LOADS
** 
** Name: PRS-W-DOWN   Type: Pressure
*Dsload, amplitude=Amp-2
WAIST-DOWN-1.Surf-INN, P, 21.
** Name: PRS-W-UP   Type: Pressure
** 
** OUTPUT REQUESTS
** 
*Restart, write, frequency=0
** 
** FIELD OUTPUT: F-Output-2
** 
*Output, field, variable=PRESELECT
** 
** HISTORY OUTPUT: H-Output-2
** 
*Output, history, variable=PRESELECT
*End Step
** ----------------------------------------------------------------
** 
** STEP: Step-5
** 
*Step, name=Step-5, nlgeom=YES, inc=1000
*Static
0.001, 1., 1e-07, 0.1
** 
** LOADS
** 
** Name: PRS-C-LEFT   Type: Pressure
*Dsload
CHEST-LEFT-1.Surf-INN, P, 4940.63
** Name: PRS-C-RIGHT   Type: Pressure
*Dsload
CHEST-RIGHT-1.Surf-INN, P, 4940.63
** Name: PRS-W-DOWN   Type: Pressure
** 
** OUTPUT REQUESTS
** 
*Restart, write, frequency=0
** 
** FIELD OUTPUT: F-Output-2
** 
*Output, field, variable=PRESELECT
** 
** HISTORY OUTPUT: H-Output-2
** 
*Output, history, variable=PRESELECT
*End Step
