1

   Abaqus 2020                                  Date 05-May-2022   Time 05:32:19
   For use by Supplied by Team-SolidSQUAD under license from Dassault Systemes or its subsidiary.

                                                                                 
                                                                                 
 STEP    1     INCREMENT     1     STEP TIME    0.00    


                        S T E P       1     S T A T I C   A N A L Y S I S


                                                                                          

     AUTOMATIC TIME CONTROL WITH -
          A SUGGESTED INITIAL TIME INCREMENT OF                1.000E-03
          AND A TOTAL TIME PERIOD OF                            1.00    
          THE MINIMUM TIME INCREMENT ALLOWED IS                1.000E-07
          THE MAXIMUM TIME INCREMENT ALLOWED IS                0.100    

     LINEAR EQUATION SOLVER TYPE         DIRECT SPARSE

 CONVERGENCE TOLERANCE PARAMETERS FOR FORCE    
     CRITERION FOR RESIDUAL FORCE     FOR A NONLINEAR PROBLEM          5.000E-03
     CRITERION FOR DISP.    CORRECTION IN A NONLINEAR PROBLEM          1.000E-02
     INITIAL VALUE OF TIME AVERAGE FORCE                               1.000E-02
     AVERAGE FORCE     IS TIME AVERAGE FORCE    
     ALTERNATE CRIT. FOR RESIDUAL FORCE     FOR A NONLINEAR PROBLEM    2.000E-02
     CRITERION FOR ZERO FORCE     RELATIVE TO TIME AVRG. FORCE         1.000E-05
     CRITERION FOR RESIDUAL FORCE     WHEN THERE IS ZERO FLUX          1.000E-05
     CRITERION FOR DISP.    CORRECTION WHEN THERE IS ZERO FLUX         1.000E-03
     CRITERION FOR RESIDUAL FORCE     FOR A LINEAR INCREMENT           1.000E-08
     FIELD CONVERSION RATIO                                             1.00    
     CRITERION FOR ZERO FORCE     REL. TO TIME AVRG. MAX. FORCE        1.000E-05
     CRITERION FOR ZERO DISP.    RELATIVE TO CHARACTERISTIC LENGTH     1.000E-08

 CONVERGENCE TOLERANCE PARAMETERS FOR MOMENT   
     CRITERION FOR RESIDUAL MOMENT    FOR A NONLINEAR PROBLEM          5.000E-03
     CRITERION FOR ROTATION CORRECTION IN A NONLINEAR PROBLEM          1.000E-02
     INITIAL VALUE OF TIME AVERAGE MOMENT                              1.000E-02
     AVERAGE MOMENT    IS TIME AVERAGE MOMENT   
     ALTERNATE CRIT. FOR RESIDUAL MOMENT    FOR A NONLINEAR PROBLEM    2.000E-02
     CRITERION FOR ZERO MOMENT    RELATIVE TO TIME AVRG. MOMENT        1.000E-05
     CRITERION FOR RESIDUAL MOMENT    WHEN THERE IS ZERO FLUX          1.000E-05
     CRITERION FOR ROTATION CORRECTION WHEN THERE IS ZERO FLUX         1.000E-03
     CRITERION FOR RESIDUAL MOMENT    FOR A LINEAR INCREMENT           1.000E-08
     FIELD CONVERSION RATIO                                             1.00    
     CRITERION FOR ZERO MOMENT    REL. TO TIME AVRG. MAX. MOMENT       1.000E-05

     VOLUMETRIC STRAIN COMPATIBILITY TOLERANCE FOR HYBRID SOLIDS       1.000E-05
     AXIAL STRAIN COMPATIBILITY TOLERANCE FOR HYBRID BEAMS             1.000E-05
     TRANS. SHEAR STRAIN COMPATIBILITY TOLERANCE FOR HYBRID BEAMS      1.000E-05
     SOFT CONTACT CONSTRAINT COMPATIBILITY TOLERANCE FOR P>P0          5.000E-03
     SOFT CONTACT CONSTRAINT COMPATIBILITY TOLERANCE FOR P=0.0         0.100    
     CONTACT FORCE ERROR TOLERANCE FOR CONVERT SDI=YES                 1.00    
     DISPLACEMENT COMPATIBILITY TOLERANCE FOR DCOUP ELEMENTS           1.000E-05
     ROTATION COMPATIBILITY TOLERANCE FOR DCOUP ELEMENTS               1.000E-05

 EQUILIBRIUM WILL BE CHECKED FOR SEVERE DISCONTINUITY ITERATIONS

 TIME INCREMENTATION CONTROL PARAMETERS:
     FIRST EQUILIBRIUM ITERATION FOR CONSECUTIVE DIVERGENCE CHECK              4
     EQUILIBRIUM ITERATION AT WHICH LOG. CONVERGENCE RATE CHECK BEGINS         8
     EQUILIBRIUM ITERATION AFTER WHICH ALTERNATE RESIDUAL IS USED              9
     MAXIMUM EQUILIBRIUM ITERATIONS ALLOWED                                   16
     EQUILIBRIUM ITERATION COUNT FOR CUT-BACK IN NEXT INCREMENT               10
     MAXIMUM EQUILIB. ITERS IN TWO INCREMENTS FOR TIME INCREMENT INCREASE      4
     MAXIMUM ITERATIONS FOR SEVERE DISCONTINUITIES                            50
     MAXIMUM ATTEMPTS ALLOWED IN AN INCREMENT                                  5
     MAXIMUM DISCON. ITERS IN TWO INCREMENTS FOR TIME INCREMENT INCREASE      50
     MAXIMUM CONTACT AUGMENTATIONS FOR *SURFACE BEHAVIOR,AUGMENTED LAGRANGE   50
     CUT-BACK FACTOR AFTER DIVERGENCE                                 0.2500    
     CUT-BACK FACTOR FOR TOO SLOW CONVERGENCE                         0.5000    
     CUT-BACK FACTOR AFTER TOO MANY EQUILIBRIUM ITERATIONS            0.7500    
     CUT-BACK FACTOR AFTER TOO MANY SEVERE DISCONTINUITY ITERATIONS   0.2500    
     CUT-BACK FACTOR AFTER PROBLEMS IN ELEMENT ASSEMBLY               0.2500    
     INCREASE FACTOR AFTER TWO INCREMENTS THAT CONVERGE QUICKLY        1.500    
     MAX. TIME INCREMENT INCREASE FACTOR ALLOWED                       1.500    
     MAX. TIME INCREMENT INCREASE FACTOR ALLOWED (DYNAMICS)            1.250    
     MAX. TIME INCREMENT INCREASE FACTOR ALLOWED (DIFFUSION)           2.000    
     MINIMUM TIME INCREMENT RATIO FOR EXTRAPOLATION TO OCCUR          0.1000    
     MAX. RATIO OF TIME INCREMENT TO STABILITY LIMIT                   1.000    
     FRACTION OF STABILITY LIMIT FOR NEW TIME INCREMENT               0.9500    
     TIME INCREMENT INCREASE FACTOR BEFORE A TIME POINT                1.000    
     GLOBAL STABILIZATION CONTROL IS NOT USED

          PRINT OF INCREMENT NUMBER, TIME, ETC., EVERY    1  INCREMENTS

 LINE SEARCH TOLERANCE PARAMETERS:
     MAXIMUM NUMBER OF ZERO-FINDING ITERATIONS                                 0
     MAXIMUM CORRECTION SCALE FACTOR                                    1.00    
     MINIMUM CORRECTION SCALE FACTOR                                   1.000E-04
     RESIDUAL REDUCTION FACTOR TO END LINE SEARCHING                   0.250    
     RATIO OF NEW TO OLD SCALE FACTORS TO END LINE SEARCHING           0.100    

          THE QUASI-NEWTON SOLUTION TECHNIQUE WILL BE USED
          THE MAXIMUM NUMBER OF ITERATIONS ALLOWED BEFORE
          REFORMING THE KERNEL MATRIX IS                           8

     THE MAXIMUM NUMBER OF INCREMENTS IN THIS STEP IS                    1000

          LARGE DISPLACEMENT THEORY WILL BE USED

     LINEAR EXTRAPOLATION WILL BE USED

     CHARACTERISTIC ELEMENT LENGTH     8.307E-03

     DETAILS REGARDING ACTUAL SOLUTION WAVEFRONT REQUESTED

     DETAILED OUTPUT OF DIAGNOSTICS TO DATABASE REQUESTED

     PRINT OF INCREMENT NUMBER, TIME, ETC., TO THE MESSAGE FILE EVERY     1  INCREMENTS

     ELEMENT OPERATIONS WILL BE CARRIED OUT IN PARALLEL USING   5 PROCESSORS

     PARALLEL CONTACT TRACKING ENABLED


     COLLECTING MODEL CONSTRAINT INFORMATION FOR OVERCONSTRAINT CHECKS

     COLLECTING STEP CONSTRAINT INFORMATION FOR OVERCONSTRAINT CHECKS


  INCREMENT     1 STARTS. ATTEMPT NUMBER  1, TIME INCREMENT  1.000E-03
 
     INITIAL ELEMENT LOAD BALANCE
            PROCESS    1   THREAD     NUMBER OF ELEMENTS
                              1            3072
                              2            3072
                              3            3072
                              4            3498
                              5            2557

 ==> quasi-Newton: performing full factorization

 ***WARNING: THERE ARE 4 UNCONNECTED REGIONS IN THE MODEL.

 ***NOTE: SFM TYPE SURFACE ELEMENTS USED TO DEFINE CONTACT SURFACES NOT PART OF 
          A RIGID BODY MAY INCREASE THE NUMBER OR UNCONNECTED REGIONS REPORTED.

  USING THE DIRECT SOLVER WITH   5 PROCESSORS

     CHECK POINT   START OF SOLVER    

  NUMBER OF EQUATIONS =     34476     NUMBER OF RHS =    1
  NUMBER OF FLOATING PT. OPERATIONS =  7.83E+08

     CHECK POINT  END OF SOLVER       

       ELAPSED USER TIME (SEC)      =  0.50000    
       ELAPSED SYSTEM TIME (SEC)    =   0.0000    
       ELAPSED TOTAL CPU TIME (SEC) =  0.50000    
       ELAPSED WALLCLOCK TIME (SEC) =          0

               CONVERGENCE CHECKS FOR EQUILIBRIUM ITERATION     1


 AVERAGE FORCE                      1.519E-06   TIME AVG. FORCE        1.20    
                                                (FROM MOMENT    FIELD)
 LARGEST RESIDUAL FORCE             2.672E-05   AT NODE        131   DOF  2
   INSTANCE: WAIST-UP-1                                                                      
 LARGEST INCREMENT OF DISP.         6.763E-05   AT NODE        499   DOF  3
   INSTANCE: WAIST-UP-1                                                                      
 LARGEST CORRECTION TO DISP.        6.763E-05   AT NODE        499   DOF  3
   INSTANCE: WAIST-UP-1                                                                      
          THE FORCE     IS ZERO EVERYWHERE BUT THE FORCE     RESIDUAL OR
          THE DISP.    CORRECTION IS NON-ZERO

 AVERAGE MOMENT                     8.394E-10   TIME AVG. MOMENT      1.000E-02
 LARGEST RESIDUAL MOMENT            3.920E-09   AT NODE        460   DOF  4
   INSTANCE: WAIST-UP-1                                                                      
 LARGEST INCREMENT OF ROTATION     -4.877E-03   AT NODE         90   DOF  4
   INSTANCE: WAIST-UP-1                                                                      
 LARGEST CORRECTION TO ROTATION    -4.877E-03   AT NODE         90   DOF  4
   INSTANCE: WAIST-UP-1                                                                      
          THERE IS ZERO MOMENT    EVERYWHERE
 

 ***WARNING: THERE IS ZERO MOMENT EVERYWHERE IN THE MODEL BASED ON THE DEFAULT 
             CRITERION. PLEASE CHECK THE VALUE OF THE AVERAGE MOMENT DURING THE 
             CURRENT ITERATION TO VERIFY THAT THE MOMENT IS SMALL ENOUGH TO BE 
             TREATED AS ZERO. IF NOT, PLEASE USE THE SOLUTION CONTROLS TO RESET 
             THE CRITERION FOR ZERO MOMENT.

 ==> quasi-Newton: applying BFGS update  1

  USING THE DIRECT SOLVER WITH   5 PROCESSORS

     CHECK POINT   START OF SOLVER    

  NUMBER OF EQUATIONS =     34476     NUMBER OF RHS =    1
  NUMBER OF FLOATING PT. OPERATIONS =  7.83E+08

     CHECK POINT  END OF SOLVER       

       ELAPSED USER TIME (SEC)      =   0.0000    
       ELAPSED SYSTEM TIME (SEC)    =   0.0000    
       ELAPSED TOTAL CPU TIME (SEC) =   0.0000    
       ELAPSED WALLCLOCK TIME (SEC) =          0
 ==> quasi-Newton:  skipped BFGS update  1

               CONVERGENCE CHECKS FOR EQUILIBRIUM ITERATION     2


 AVERAGE FORCE                      1.505E-06   TIME AVG. FORCE        1.20    
                                                (FROM MOMENT    FIELD)
 LARGEST RESIDUAL FORCE            -2.268E-06   AT NODE        131   DOF  2
   INSTANCE: WAIST-UP-1                                                                      
 LARGEST INCREMENT OF DISP.         6.494E-05   AT NODE        499   DOF  3
   INSTANCE: WAIST-UP-1                                                                      
 LARGEST CORRECTION TO DISP.       -2.693E-06   AT NODE        499   DOF  3
   INSTANCE: WAIST-UP-1                                                                      
          THERE IS ZERO FORCE     EVERYWHERE

 AVERAGE MOMENT                     8.251E-10   TIME AVG. MOMENT      1.000E-02
 LARGEST RESIDUAL MOMENT           -4.535E-10   AT NODE        460   DOF  4
   INSTANCE: WAIST-UP-1                                                                      
 LARGEST INCREMENT OF ROTATION     -4.663E-03   AT NODE         90   DOF  4
   INSTANCE: WAIST-UP-1                                                                      
 LARGEST CORRECTION TO ROTATION     2.158E-04   AT NODE         22   DOF  4
   INSTANCE: WAIST-UP-1                                                                      
          THERE IS ZERO MOMENT    EVERYWHERE
 

 ***WARNING: THERE IS ZERO MOMENT EVERYWHERE IN THE MODEL BASED ON THE DEFAULT 
             CRITERION. PLEASE CHECK THE VALUE OF THE AVERAGE MOMENT DURING THE 
             CURRENT ITERATION TO VERIFY THAT THE MOMENT IS SMALL ENOUGH TO BE 
             TREATED AS ZERO. IF NOT, PLEASE USE THE SOLUTION CONTROLS TO RESET 
             THE CRITERION FOR ZERO MOMENT.

 ITERATION SUMMARY FOR THE INCREMENT:   2 TOTAL ITERATIONS, OF WHICH
   0 ARE SEVERE DISCONTINUITY ITERATIONS AND  2 ARE EQUILIBRIUM ITERATIONS.

 TIME INCREMENT COMPLETED  1.000E-03,  FRACTION OF STEP COMPLETED  1.000E-03
 STEP TIME COMPLETED       1.000E-03,  TOTAL TIME COMPLETED        1.000E-03


  INCREMENT     2 STARTS. ATTEMPT NUMBER  1, TIME INCREMENT  1.000E-03

 ==> quasi-Newton: performing full factorization

  USING THE DIRECT SOLVER WITH   5 PROCESSORS

     CHECK POINT   START OF SOLVER    

  NUMBER OF EQUATIONS =     34476     NUMBER OF RHS =    1
  NUMBER OF FLOATING PT. OPERATIONS =  7.83E+08

     CHECK POINT  END OF SOLVER       

       ELAPSED USER TIME (SEC)      =  0.50000    
       ELAPSED SYSTEM TIME (SEC)    =  0.10000    
       ELAPSED TOTAL CPU TIME (SEC) =  0.60000    
       ELAPSED WALLCLOCK TIME (SEC) =          0

               CONVERGENCE CHECKS FOR EQUILIBRIUM ITERATION     1


 AVERAGE FORCE                      3.002E-06   TIME AVG. FORCE        1.20    
                                                (FROM MOMENT    FIELD)
 LARGEST RESIDUAL FORCE            -4.421E-07   AT NODE        771   DOF  3
   INSTANCE: WAIST-MIDDLE-1                                                                  
 LARGEST INCREMENT OF DISP.         6.097E-05   AT NODE        499   DOF  3
   INSTANCE: WAIST-UP-1                                                                      
 LARGEST CORRECTION TO DISP.       -3.965E-06   AT NODE        499   DOF  3
   INSTANCE: WAIST-UP-1                                                                      
          THERE IS ZERO FORCE     EVERYWHERE

 AVERAGE MOMENT                     1.627E-09   TIME AVG. MOMENT      1.000E-02
 LARGEST RESIDUAL MOMENT           -9.463E-10   AT NODE        771   DOF  4
   INSTANCE: WAIST-MIDDLE-1                                                                  
 LARGEST INCREMENT OF ROTATION     -4.365E-03   AT NODE         90   DOF  4
   INSTANCE: WAIST-UP-1                                                                      
 LARGEST CORRECTION TO ROTATION     2.992E-04   AT NODE         22   DOF  4
   INSTANCE: WAIST-UP-1                                                                      
          THERE IS ZERO MOMENT    EVERYWHERE
 

 ***WARNING: THERE IS ZERO MOMENT EVERYWHERE IN THE MODEL BASED ON THE DEFAULT 
             CRITERION. PLEASE CHECK THE VALUE OF THE AVERAGE MOMENT DURING THE 
             CURRENT ITERATION TO VERIFY THAT THE MOMENT IS SMALL ENOUGH TO BE 
             TREATED AS ZERO. IF NOT, PLEASE USE THE SOLUTION CONTROLS TO RESET 
             THE CRITERION FOR ZERO MOMENT.
          TIME INCREMENT MAY NOW INCREASE TO    1.500E-03

 ITERATION SUMMARY FOR THE INCREMENT:   1 TOTAL ITERATIONS, OF WHICH
   0 ARE SEVERE DISCONTINUITY ITERATIONS AND  1 ARE EQUILIBRIUM ITERATIONS.

 TIME INCREMENT COMPLETED  1.000E-03,  FRACTION OF STEP COMPLETED  2.000E-03
 STEP TIME COMPLETED       2.000E-03,  TOTAL TIME COMPLETED        2.000E-03


  INCREMENT     3 STARTS. ATTEMPT NUMBER  1, TIME INCREMENT  1.500E-03

 ==> quasi-Newton: performing full factorization

  USING THE DIRECT SOLVER WITH   5 PROCESSORS

     CHECK POINT   START OF SOLVER    

  NUMBER OF EQUATIONS =     34476     NUMBER OF RHS =    1
  NUMBER OF FLOATING PT. OPERATIONS =  7.83E+08

     CHECK POINT  END OF SOLVER       

       ELAPSED USER TIME (SEC)      =  0.50000    
       ELAPSED SYSTEM TIME (SEC)    =  0.10000    
       ELAPSED TOTAL CPU TIME (SEC) =  0.60000    
       ELAPSED WALLCLOCK TIME (SEC) =          0

               CONVERGENCE CHECKS FOR EQUILIBRIUM ITERATION     1


 AVERAGE FORCE                      5.231E-06   TIME AVG. FORCE        1.20    
                                                (FROM MOMENT    FIELD)
 LARGEST RESIDUAL FORCE            -7.569E-07   AT NODE        771   DOF  3
   INSTANCE: WAIST-MIDDLE-1                                                                  
 LARGEST INCREMENT OF DISP.         8.371E-05   AT NODE        499   DOF  3
   INSTANCE: WAIST-UP-1                                                                      
 LARGEST CORRECTION TO DISP.       -7.752E-06   AT NODE        499   DOF  3
   INSTANCE: WAIST-UP-1                                                                      
          THERE IS ZERO FORCE     EVERYWHERE

 AVERAGE MOMENT                     2.788E-09   TIME AVG. MOMENT      1.000E-02
 LARGEST RESIDUAL MOMENT           -1.601E-09   AT NODE        771   DOF  4
   INSTANCE: WAIST-MIDDLE-1                                                                  
 LARGEST INCREMENT OF ROTATION     -5.945E-03   AT NODE         90   DOF  4
   INSTANCE: WAIST-UP-1                                                                      
 LARGEST CORRECTION TO ROTATION     6.025E-04   AT NODE         22   DOF  4
   INSTANCE: WAIST-UP-1                                                                      
          THERE IS ZERO MOMENT    EVERYWHERE
 

 ***WARNING: THERE IS ZERO MOMENT EVERYWHERE IN THE MODEL BASED ON THE DEFAULT 
             CRITERION. PLEASE CHECK THE VALUE OF THE AVERAGE MOMENT DURING THE 
             CURRENT ITERATION TO VERIFY THAT THE MOMENT IS SMALL ENOUGH TO BE 
             TREATED AS ZERO. IF NOT, PLEASE USE THE SOLUTION CONTROLS TO RESET 
             THE CRITERION FOR ZERO MOMENT.
          TIME INCREMENT MAY NOW INCREASE TO    2.250E-03

 ITERATION SUMMARY FOR THE INCREMENT:   1 TOTAL ITERATIONS, OF WHICH
   0 ARE SEVERE DISCONTINUITY ITERATIONS AND  1 ARE EQUILIBRIUM ITERATIONS.

 TIME INCREMENT COMPLETED  1.500E-03,  FRACTION OF STEP COMPLETED  3.500E-03
 STEP TIME COMPLETED       3.500E-03,  TOTAL TIME COMPLETED        3.500E-03


  INCREMENT     4 STARTS. ATTEMPT NUMBER  1, TIME INCREMENT  2.250E-03

 ==> quasi-Newton: performing full factorization

  USING THE DIRECT SOLVER WITH   5 PROCESSORS

     CHECK POINT   START OF SOLVER    

  NUMBER OF EQUATIONS =     34476     NUMBER OF RHS =    1
  NUMBER OF FLOATING PT. OPERATIONS =  7.83E+08

     CHECK POINT  END OF SOLVER       

       ELAPSED USER TIME (SEC)      =  0.30000    
       ELAPSED SYSTEM TIME (SEC)    =  0.10000    
       ELAPSED TOTAL CPU TIME (SEC) =  0.40000    
       ELAPSED WALLCLOCK TIME (SEC) =          0

               CONVERGENCE CHECKS FOR EQUILIBRIUM ITERATION     1


 AVERAGE FORCE                      8.548E-06   TIME AVG. FORCE        1.20    
                                                (FROM MOMENT    FIELD)
 LARGEST RESIDUAL FORCE            -1.502E-06   AT NODE        771   DOF  3
   INSTANCE: WAIST-MIDDLE-1                                                                  
 LARGEST INCREMENT OF DISP.         1.120E-04   AT NODE        288   DOF  3
   INSTANCE: WAIST-UP-1                                                                      
 LARGEST CORRECTION TO DISP.       -1.383E-05   AT NODE        499   DOF  3
   INSTANCE: WAIST-UP-1                                                                      
          THERE IS ZERO FORCE     EVERYWHERE

 AVERAGE MOMENT                     4.448E-09   TIME AVG. MOMENT      1.000E-02
 LARGEST RESIDUAL MOMENT           -3.133E-09   AT NODE        771   DOF  4
   INSTANCE: WAIST-MIDDLE-1                                                                  
 LARGEST INCREMENT OF ROTATION     -7.868E-03   AT NODE         90   DOF  4
   INSTANCE: WAIST-UP-1                                                                      
 LARGEST CORRECTION TO ROTATION     1.050E-03   AT NODE         90   DOF  4
   INSTANCE: WAIST-UP-1                                                                      
          THERE IS ZERO MOMENT    EVERYWHERE
 

 ***WARNING: THERE IS ZERO MOMENT EVERYWHERE IN THE MODEL BASED ON THE DEFAULT 
             CRITERION. PLEASE CHECK THE VALUE OF THE AVERAGE MOMENT DURING THE 
             CURRENT ITERATION TO VERIFY THAT THE MOMENT IS SMALL ENOUGH TO BE 
             TREATED AS ZERO. IF NOT, PLEASE USE THE SOLUTION CONTROLS TO RESET 
             THE CRITERION FOR ZERO MOMENT.
          TIME INCREMENT MAY NOW INCREASE TO    3.375E-03

 ITERATION SUMMARY FOR THE INCREMENT:   1 TOTAL ITERATIONS, OF WHICH
   0 ARE SEVERE DISCONTINUITY ITERATIONS AND  1 ARE EQUILIBRIUM ITERATIONS.

 TIME INCREMENT COMPLETED  2.250E-03,  FRACTION OF STEP COMPLETED  5.750E-03
 STEP TIME COMPLETED       5.750E-03,  TOTAL TIME COMPLETED        5.750E-03


  INCREMENT     5 STARTS. ATTEMPT NUMBER  1, TIME INCREMENT  3.375E-03

 ==> quasi-Newton: performing full factorization

  USING THE DIRECT SOLVER WITH   5 PROCESSORS

     CHECK POINT   START OF SOLVER    

  NUMBER OF EQUATIONS =     34476     NUMBER OF RHS =    1
  NUMBER OF FLOATING PT. OPERATIONS =  7.83E+08

     CHECK POINT  END OF SOLVER       

       ELAPSED USER TIME (SEC)      =  0.50000    
       ELAPSED SYSTEM TIME (SEC)    =  0.10000    
       ELAPSED TOTAL CPU TIME (SEC) =  0.60000    
       ELAPSED WALLCLOCK TIME (SEC) =          1

               CONVERGENCE CHECKS FOR EQUILIBRIUM ITERATION     1


 AVERAGE FORCE                      1.348E-05   TIME AVG. FORCE       1.348E-05
 LARGEST RESIDUAL FORCE             3.586E-06   AT NODE        131   DOF  2
   INSTANCE: WAIST-UP-1                                                                      
 LARGEST INCREMENT OF DISP.         1.458E-04   AT NODE        288   DOF  3
   INSTANCE: WAIST-UP-1                                                                      
 LARGEST CORRECTION TO DISP.       -2.408E-05   AT NODE        499   DOF  3
   INSTANCE: WAIST-UP-1                                                                      
          FORCE     EQUILIBRIUM NOT ACHIEVED WITHIN TOLERANCE.

 AVERAGE MOMENT                     6.794E-09   TIME AVG. MOMENT      1.000E-02
 LARGEST RESIDUAL MOMENT           -5.872E-09   AT NODE        771   DOF  4
   INSTANCE: WAIST-MIDDLE-1                                                                  
 LARGEST INCREMENT OF ROTATION     -1.001E-02   AT NODE         90   DOF  4
   INSTANCE: WAIST-UP-1                                                                      
 LARGEST CORRECTION TO ROTATION     1.796E-03   AT NODE         90   DOF  4
   INSTANCE: WAIST-UP-1                                                                      
          THERE IS ZERO MOMENT    EVERYWHERE
 

 ***WARNING: THERE IS ZERO MOMENT EVERYWHERE IN THE MODEL BASED ON THE DEFAULT 
             CRITERION. PLEASE CHECK THE VALUE OF THE AVERAGE MOMENT DURING THE 
             CURRENT ITERATION TO VERIFY THAT THE MOMENT IS SMALL ENOUGH TO BE 
             TREATED AS ZERO. IF NOT, PLEASE USE THE SOLUTION CONTROLS TO RESET 
             THE CRITERION FOR ZERO MOMENT.

 ==> quasi-Newton: applying BFGS update  1

  USING THE DIRECT SOLVER WITH   5 PROCESSORS

     CHECK POINT   START OF SOLVER    

  NUMBER OF EQUATIONS =     34476     NUMBER OF RHS =    1
  NUMBER OF FLOATING PT. OPERATIONS =  7.83E+08

     CHECK POINT  END OF SOLVER       

       ELAPSED USER TIME (SEC)      =  0.20000    
       ELAPSED SYSTEM TIME (SEC)    =   0.0000    
       ELAPSED TOTAL CPU TIME (SEC) =  0.20000    
       ELAPSED WALLCLOCK TIME (SEC) =          0
 ==> quasi-Newton:  skipped BFGS update  1

               CONVERGENCE CHECKS FOR EQUILIBRIUM ITERATION     2


 AVERAGE FORCE                      1.347E-05   TIME AVG. FORCE       1.347E-05
 LARGEST RESIDUAL FORCE             2.042E-07   AT NODE        460   DOF  2
   INSTANCE: WAIST-UP-1                                                                      
 LARGEST INCREMENT OF DISP.         1.455E-04   AT NODE        288   DOF  3
   INSTANCE: WAIST-UP-1                                                                      
 LARGEST CORRECTION TO DISP.       -4.521E-07   AT NODE        499   DOF  3
   INSTANCE: WAIST-UP-1                                                                      
          FORCE     EQUILIBRIUM NOT ACHIEVED WITHIN TOLERANCE.

 AVERAGE MOMENT                     6.793E-09   TIME AVG. MOMENT      1.000E-02
 LARGEST RESIDUAL MOMENT            4.781E-11   AT NODE        460   DOF  4
   INSTANCE: WAIST-UP-1                                                                      
 LARGEST INCREMENT OF ROTATION     -9.957E-03   AT NODE         90   DOF  4
   INSTANCE: WAIST-UP-1                                                                      
 LARGEST CORRECTION TO ROTATION     4.875E-05   AT NODE         90   DOF  4
   INSTANCE: WAIST-UP-1                                                                      
          THERE IS ZERO MOMENT    EVERYWHERE
 

 ***WARNING: THERE IS ZERO MOMENT EVERYWHERE IN THE MODEL BASED ON THE DEFAULT 
             CRITERION. PLEASE CHECK THE VALUE OF THE AVERAGE MOMENT DURING THE 
             CURRENT ITERATION TO VERIFY THAT THE MOMENT IS SMALL ENOUGH TO BE 
             TREATED AS ZERO. IF NOT, PLEASE USE THE SOLUTION CONTROLS TO RESET 
             THE CRITERION FOR ZERO MOMENT.

 ==> quasi-Newton: applying BFGS update  1

  USING THE DIRECT SOLVER WITH   5 PROCESSORS

     CHECK POINT   START OF SOLVER    

  NUMBER OF EQUATIONS =     34476     NUMBER OF RHS =    1
  NUMBER OF FLOATING PT. OPERATIONS =  7.83E+08

     CHECK POINT  END OF SOLVER       

       ELAPSED USER TIME (SEC)      =  0.10000    
       ELAPSED SYSTEM TIME (SEC)    =  0.10000    
       ELAPSED TOTAL CPU TIME (SEC) =  0.20000    
       ELAPSED WALLCLOCK TIME (SEC) =          0

               CONVERGENCE CHECKS FOR EQUILIBRIUM ITERATION     3


 AVERAGE FORCE                      1.347E-05   TIME AVG. FORCE       1.347E-05
 LARGEST RESIDUAL FORCE             3.508E-10   AT NODE        498   DOF  2
   INSTANCE: WAIST-UP-1                                                                      
 LARGEST INCREMENT OF DISP.         1.454E-04   AT NODE        288   DOF  3
   INSTANCE: WAIST-UP-1                                                                      
 LARGEST CORRECTION TO DISP.       -1.741E-08   AT NODE        532   DOF  3
   INSTANCE: WAIST-UP-1                                                                      
          THE FORCE     EQUILIBRIUM EQUATIONS HAVE CONVERGED

 AVERAGE MOMENT                     6.792E-09   TIME AVG. MOMENT      1.000E-02
 LARGEST RESIDUAL MOMENT            6.391E-13   AT NODE        771   DOF  4
   INSTANCE: WAIST-MIDDLE-1                                                                  
 LARGEST INCREMENT OF ROTATION     -9.955E-03   AT NODE         90   DOF  4
   INSTANCE: WAIST-UP-1                                                                      
 LARGEST CORRECTION TO ROTATION     1.941E-06   AT NODE         90   DOF  4
   INSTANCE: WAIST-UP-1                                                                      
          THERE IS ZERO MOMENT    EVERYWHERE
 

 ***WARNING: THERE IS ZERO MOMENT EVERYWHERE IN THE MODEL BASED ON THE DEFAULT 
             CRITERION. PLEASE CHECK THE VALUE OF THE AVERAGE MOMENT DURING THE 
             CURRENT ITERATION TO VERIFY THAT THE MOMENT IS SMALL ENOUGH TO BE 
             TREATED AS ZERO. IF NOT, PLEASE USE THE SOLUTION CONTROLS TO RESET 
             THE CRITERION FOR ZERO MOMENT.
          TIME INCREMENT MAY NOW INCREASE TO    5.063E-03

 ITERATION SUMMARY FOR THE INCREMENT:   3 TOTAL ITERATIONS, OF WHICH
   0 ARE SEVERE DISCONTINUITY ITERATIONS AND  3 ARE EQUILIBRIUM ITERATIONS.

 TIME INCREMENT COMPLETED  3.375E-03,  FRACTION OF STEP COMPLETED  9.125E-03
 STEP TIME COMPLETED       9.125E-03,  TOTAL TIME COMPLETED        9.125E-03


  INCREMENT     6 STARTS. ATTEMPT NUMBER  1, TIME INCREMENT  5.063E-03

 ==> quasi-Newton: performing full factorization

  USING THE DIRECT SOLVER WITH   5 PROCESSORS

     CHECK POINT   START OF SOLVER    

  NUMBER OF EQUATIONS =     34476     NUMBER OF RHS =    1
  NUMBER OF FLOATING PT. OPERATIONS =  7.83E+08

     CHECK POINT  END OF SOLVER       

       ELAPSED USER TIME (SEC)      =  0.60000    
       ELAPSED SYSTEM TIME (SEC)    =  0.10000    
       ELAPSED TOTAL CPU TIME (SEC) =  0.70000    
       ELAPSED WALLCLOCK TIME (SEC) =          0

               CONVERGENCE CHECKS FOR EQUILIBRIUM ITERATION     1


 AVERAGE FORCE                      6.123E-05   TIME AVG. FORCE       3.735E-05
 LARGEST RESIDUAL FORCE             8.184E-06   AT NODE        131   DOF  2
   INSTANCE: WAIST-UP-1                                                                      
 LARGEST INCREMENT OF DISP.         1.831E-04   AT NODE        288   DOF  3
   INSTANCE: WAIST-UP-1                                                                      
 LARGEST CORRECTION TO DISP.       -3.733E-05   AT NODE        499   DOF  3
   INSTANCE: WAIST-UP-1                                                                      
          FORCE     EQUILIBRIUM NOT ACHIEVED WITHIN TOLERANCE.

 AVERAGE MOMENT                     1.006E-08   TIME AVG. MOMENT      1.000E-02
 LARGEST RESIDUAL MOMENT           -1.031E-08   AT NODE        771   DOF  4
   INSTANCE: WAIST-MIDDLE-1                                                                  
 LARGEST INCREMENT OF ROTATION     -1.224E-02   AT NODE         90   DOF  4
   INSTANCE: WAIST-UP-1                                                                      
 LARGEST CORRECTION TO ROTATION     2.688E-03   AT NODE         90   DOF  4
   INSTANCE: WAIST-UP-1                                                                      
          THERE IS ZERO MOMENT    EVERYWHERE
 

 ***WARNING: THERE IS ZERO MOMENT EVERYWHERE IN THE MODEL BASED ON THE DEFAULT 
             CRITERION. PLEASE CHECK THE VALUE OF THE AVERAGE MOMENT DURING THE 
             CURRENT ITERATION TO VERIFY THAT THE MOMENT IS SMALL ENOUGH TO BE 
             TREATED AS ZERO. IF NOT, PLEASE USE THE SOLUTION CONTROLS TO RESET 
             THE CRITERION FOR ZERO MOMENT.

 ==> quasi-Newton: applying BFGS update  1

  USING THE DIRECT SOLVER WITH   5 PROCESSORS

     CHECK POINT   START OF SOLVER    

  NUMBER OF EQUATIONS =     34476     NUMBER OF RHS =    1
  NUMBER OF FLOATING PT. OPERATIONS =  7.83E+08

     CHECK POINT  END OF SOLVER       

       ELAPSED USER TIME (SEC)      =  0.20000    
       ELAPSED SYSTEM TIME (SEC)    =   0.0000    
       ELAPSED TOTAL CPU TIME (SEC) =  0.20000    
       ELAPSED WALLCLOCK TIME (SEC) =          0
 ==> quasi-Newton:  skipped BFGS update  1

               CONVERGENCE CHECKS FOR EQUILIBRIUM ITERATION     2


 AVERAGE FORCE                      6.122E-05   TIME AVG. FORCE       3.735E-05
 LARGEST RESIDUAL FORCE             6.369E-07   AT NODE        460   DOF  2
   INSTANCE: WAIST-UP-1                                                                      
 LARGEST INCREMENT OF DISP.         1.823E-04   AT NODE        288   DOF  3
   INSTANCE: WAIST-UP-1                                                                      
 LARGEST CORRECTION TO DISP.       -9.640E-07   AT NODE        499   DOF  3
   INSTANCE: WAIST-UP-1                                                                      
          FORCE     EQUILIBRIUM NOT ACHIEVED WITHIN TOLERANCE.

 AVERAGE MOMENT                     1.005E-08   TIME AVG. MOMENT      1.000E-02
 LARGEST RESIDUAL MOMENT            1.676E-10   AT NODE        460   DOF  4
   INSTANCE: WAIST-UP-1                                                                      
 LARGEST INCREMENT OF ROTATION     -1.214E-02   AT NODE         90   DOF  4
   INSTANCE: WAIST-UP-1                                                                      
 LARGEST CORRECTION TO ROTATION     1.025E-04   AT NODE         90   DOF  4
   INSTANCE: WAIST-UP-1                                                                      
          THERE IS ZERO MOMENT    EVERYWHERE
 

 ***WARNING: THERE IS ZERO MOMENT EVERYWHERE IN THE MODEL BASED ON THE DEFAULT 
             CRITERION. PLEASE CHECK THE VALUE OF THE AVERAGE MOMENT DURING THE 
             CURRENT ITERATION TO VERIFY THAT THE MOMENT IS SMALL ENOUGH TO BE 
             TREATED AS ZERO. IF NOT, PLEASE USE THE SOLUTION CONTROLS TO RESET 
             THE CRITERION FOR ZERO MOMENT.

 ==> quasi-Newton: applying BFGS update  1

  USING THE DIRECT SOLVER WITH   5 PROCESSORS

     CHECK POINT   START OF SOLVER    

  NUMBER OF EQUATIONS =     34476     NUMBER OF RHS =    1
  NUMBER OF FLOATING PT. OPERATIONS =  7.83E+08

     CHECK POINT  END OF SOLVER       

       ELAPSED USER TIME (SEC)      =   0.0000    
       ELAPSED SYSTEM TIME (SEC)    =  0.10000    
       ELAPSED TOTAL CPU TIME (SEC) =  0.10000    
       ELAPSED WALLCLOCK TIME (SEC) =          0

               CONVERGENCE CHECKS FOR EQUILIBRIUM ITERATION     3


 AVERAGE FORCE                      6.122E-05   TIME AVG. FORCE       3.735E-05
 LARGEST RESIDUAL FORCE             2.226E-09   AT NODE        460   DOF  2
   INSTANCE: WAIST-UP-1                                                                      
 LARGEST INCREMENT OF DISP.         1.823E-04   AT NODE        288   DOF  3
   INSTANCE: WAIST-UP-1                                                                      
 LARGEST CORRECTION TO DISP.       -5.280E-08   AT NODE        499   DOF  3
   INSTANCE: WAIST-UP-1                                                                      
          THE FORCE     EQUILIBRIUM EQUATIONS HAVE CONVERGED

 AVERAGE MOMENT                     1.005E-08   TIME AVG. MOMENT      1.000E-02
 LARGEST RESIDUAL MOMENT            1.786E-12   AT NODE        771   DOF  4
   INSTANCE: WAIST-MIDDLE-1                                                                  
 LARGEST INCREMENT OF ROTATION     -1.214E-02   AT NODE         90   DOF  4
   INSTANCE: WAIST-UP-1                                                                      
 LARGEST CORRECTION TO ROTATION     5.876E-06   AT NODE         90   DOF  4
   INSTANCE: WAIST-UP-1                                                                      
          THERE IS ZERO MOMENT    EVERYWHERE
 

 ***WARNING: THERE IS ZERO MOMENT EVERYWHERE IN THE MODEL BASED ON THE DEFAULT 
             CRITERION. PLEASE CHECK THE VALUE OF THE AVERAGE MOMENT DURING THE 
             CURRENT ITERATION TO VERIFY THAT THE MOMENT IS SMALL ENOUGH TO BE 
             TREATED AS ZERO. IF NOT, PLEASE USE THE SOLUTION CONTROLS TO RESET 
             THE CRITERION FOR ZERO MOMENT.
          TIME INCREMENT MAY NOW INCREASE TO    7.594E-03

 ITERATION SUMMARY FOR THE INCREMENT:   3 TOTAL ITERATIONS, OF WHICH
   0 ARE SEVERE DISCONTINUITY ITERATIONS AND  3 ARE EQUILIBRIUM ITERATIONS.

 TIME INCREMENT COMPLETED  5.063E-03,  FRACTION OF STEP COMPLETED  1.419E-02
 STEP TIME COMPLETED       1.419E-02,  TOTAL TIME COMPLETED        1.419E-02


  INCREMENT     7 STARTS. ATTEMPT NUMBER  1, TIME INCREMENT  7.594E-03

 ==> quasi-Newton: performing full factorization

  USING THE DIRECT SOLVER WITH   5 PROCESSORS

     CHECK POINT   START OF SOLVER    

  NUMBER OF EQUATIONS =     34476     NUMBER OF RHS =    1
  NUMBER OF FLOATING PT. OPERATIONS =  7.83E+08

     CHECK POINT  END OF SOLVER       

       ELAPSED USER TIME (SEC)      =  0.60000    
       ELAPSED SYSTEM TIME (SEC)    =   0.0000    
       ELAPSED TOTAL CPU TIME (SEC) =  0.60000    
       ELAPSED WALLCLOCK TIME (SEC) =          0

               CONVERGENCE CHECKS FOR EQUILIBRIUM ITERATION     1


 AVERAGE FORCE                      9.101E-05   TIME AVG. FORCE       5.523E-05
 LARGEST RESIDUAL FORCE             1.615E-05   AT NODE        131   DOF  2
   INSTANCE: WAIST-UP-1                                                                      
 LARGEST INCREMENT OF DISP.         2.217E-04   AT NODE        288   DOF  3
   INSTANCE: WAIST-UP-1                                                                      
 LARGEST CORRECTION TO DISP.       -5.396E-05   AT NODE        499   DOF  3
   INSTANCE: WAIST-UP-1                                                                      
          FORCE     EQUILIBRIUM NOT ACHIEVED WITHIN TOLERANCE.

 AVERAGE MOMENT                     1.453E-08   TIME AVG. MOMENT      1.000E-02
 LARGEST RESIDUAL MOMENT           -1.695E-08   AT NODE        771   DOF  4
   INSTANCE: WAIST-MIDDLE-1                                                                  
 LARGEST INCREMENT OF ROTATION     -1.442E-02   AT NODE         90   DOF  4
   INSTANCE: WAIST-UP-1                                                                      
 LARGEST CORRECTION TO ROTATION     3.784E-03   AT NODE         90   DOF  4
   INSTANCE: WAIST-UP-1                                                                      
          THERE IS ZERO MOMENT    EVERYWHERE
 

 ***WARNING: THERE IS ZERO MOMENT EVERYWHERE IN THE MODEL BASED ON THE DEFAULT 
             CRITERION. PLEASE CHECK THE VALUE OF THE AVERAGE MOMENT DURING THE 
             CURRENT ITERATION TO VERIFY THAT THE MOMENT IS SMALL ENOUGH TO BE 
             TREATED AS ZERO. IF NOT, PLEASE USE THE SOLUTION CONTROLS TO RESET 
             THE CRITERION FOR ZERO MOMENT.

 ==> quasi-Newton: applying BFGS update  1

  USING THE DIRECT SOLVER WITH   5 PROCESSORS

     CHECK POINT   START OF SOLVER    

  NUMBER OF EQUATIONS =     34476     NUMBER OF RHS =    1
  NUMBER OF FLOATING PT. OPERATIONS =  7.83E+08

     CHECK POINT  END OF SOLVER       

       ELAPSED USER TIME (SEC)      =  0.50000    
       ELAPSED SYSTEM TIME (SEC)    =  0.10000    
       ELAPSED TOTAL CPU TIME (SEC) =  0.60000    
       ELAPSED WALLCLOCK TIME (SEC) =          1
 ==> quasi-Newton:  skipped BFGS update  1

               CONVERGENCE CHECKS FOR EQUILIBRIUM ITERATION     2


 AVERAGE FORCE                      9.099E-05   TIME AVG. FORCE       5.523E-05
 LARGEST RESIDUAL FORCE             1.606E-06   AT NODE        460   DOF  2
   INSTANCE: WAIST-UP-1                                                                      
 LARGEST INCREMENT OF DISP.         2.203E-04   AT NODE        288   DOF  3
   INSTANCE: WAIST-UP-1                                                                      
 LARGEST CORRECTION TO DISP.       -1.763E-06   AT NODE        499   DOF  3
   INSTANCE: WAIST-UP-1                                                                      
          FORCE     EQUILIBRIUM NOT ACHIEVED WITHIN TOLERANCE.

 AVERAGE MOMENT                     1.452E-08   TIME AVG. MOMENT      1.000E-02
 LARGEST RESIDUAL MOMENT            4.772E-10   AT NODE        460   DOF  4
   INSTANCE: WAIST-UP-1                                                                      
 LARGEST INCREMENT OF ROTATION     -1.423E-02   AT NODE         90   DOF  4
   INSTANCE: WAIST-UP-1                                                                      
 LARGEST CORRECTION TO ROTATION     1.854E-04   AT NODE         90   DOF  4
   INSTANCE: WAIST-UP-1                                                                      
          THERE IS ZERO MOMENT    EVERYWHERE
 

 ***WARNING: THERE IS ZERO MOMENT EVERYWHERE IN THE MODEL BASED ON THE DEFAULT 
             CRITERION. PLEASE CHECK THE VALUE OF THE AVERAGE MOMENT DURING THE 
             CURRENT ITERATION TO VERIFY THAT THE MOMENT IS SMALL ENOUGH TO BE 
             TREATED AS ZERO. IF NOT, PLEASE USE THE SOLUTION CONTROLS TO RESET 
             THE CRITERION FOR ZERO MOMENT.

 ==> quasi-Newton: applying BFGS update  1

  USING THE DIRECT SOLVER WITH   5 PROCESSORS

     CHECK POINT   START OF SOLVER    

  NUMBER OF EQUATIONS =     34476     NUMBER OF RHS =    1
  NUMBER OF FLOATING PT. OPERATIONS =  7.83E+08

     CHECK POINT  END OF SOLVER       

       ELAPSED USER TIME (SEC)      =  0.20000    
       ELAPSED SYSTEM TIME (SEC)    =   0.0000    
       ELAPSED TOTAL CPU TIME (SEC) =  0.20000    
       ELAPSED WALLCLOCK TIME (SEC) =          0

               CONVERGENCE CHECKS FOR EQUILIBRIUM ITERATION     3


 AVERAGE FORCE                      9.099E-05   TIME AVG. FORCE       5.523E-05
 LARGEST RESIDUAL FORCE             1.112E-08   AT NODE        460   DOF  2
   INSTANCE: WAIST-UP-1                                                                      
 LARGEST INCREMENT OF DISP.         2.202E-04   AT NODE        288   DOF  3
   INSTANCE: WAIST-UP-1                                                                      
 LARGEST CORRECTION TO DISP.       -1.263E-07   AT NODE        499   DOF  3
   INSTANCE: WAIST-UP-1                                                                      
          THE FORCE     EQUILIBRIUM EQUATIONS HAVE CONVERGED

 AVERAGE MOMENT                     1.452E-08   TIME AVG. MOMENT      1.000E-02
 LARGEST RESIDUAL MOMENT            4.877E-12   AT NODE        771   DOF  4
   INSTANCE: WAIST-MIDDLE-1                                                                  
 LARGEST INCREMENT OF ROTATION     -1.422E-02   AT NODE         90   DOF  4
   INSTANCE: WAIST-UP-1                                                                      
 LARGEST CORRECTION TO ROTATION     1.408E-05   AT NODE         90   DOF  4
   INSTANCE: WAIST-UP-1                                                                      
          THERE IS ZERO MOMENT    EVERYWHERE
 

 ***WARNING: THERE IS ZERO MOMENT EVERYWHERE IN THE MODEL BASED ON THE DEFAULT 
             CRITERION. PLEASE CHECK THE VALUE OF THE AVERAGE MOMENT DURING THE 
             CURRENT ITERATION TO VERIFY THAT THE MOMENT IS SMALL ENOUGH TO BE 
             TREATED AS ZERO. IF NOT, PLEASE USE THE SOLUTION CONTROLS TO RESET 
             THE CRITERION FOR ZERO MOMENT.
          TIME INCREMENT MAY NOW INCREASE TO    1.139E-02

 ITERATION SUMMARY FOR THE INCREMENT:   3 TOTAL ITERATIONS, OF WHICH
   0 ARE SEVERE DISCONTINUITY ITERATIONS AND  3 ARE EQUILIBRIUM ITERATIONS.

 TIME INCREMENT COMPLETED  7.594E-03,  FRACTION OF STEP COMPLETED  2.178E-02
 STEP TIME COMPLETED       2.178E-02,  TOTAL TIME COMPLETED        2.178E-02


  INCREMENT     8 STARTS. ATTEMPT NUMBER  1, TIME INCREMENT  1.139E-02

 ==> quasi-Newton: performing full factorization

  USING THE DIRECT SOLVER WITH   5 PROCESSORS

     CHECK POINT   START OF SOLVER    

  NUMBER OF EQUATIONS =     34476     NUMBER OF RHS =    1
  NUMBER OF FLOATING PT. OPERATIONS =  7.83E+08

     CHECK POINT  END OF SOLVER       

       ELAPSED USER TIME (SEC)      =  0.30000    
       ELAPSED SYSTEM TIME (SEC)    =  0.10000    
       ELAPSED TOTAL CPU TIME (SEC) =  0.40000    
       ELAPSED WALLCLOCK TIME (SEC) =          1

               CONVERGENCE CHECKS FOR EQUILIBRIUM ITERATION     1


 AVERAGE FORCE                      1.337E-04   TIME AVG. FORCE       7.485E-05
 LARGEST RESIDUAL FORCE             2.589E-05   AT NODE        131   DOF  2
   INSTANCE: WAIST-UP-1                                                                      
 LARGEST INCREMENT OF DISP.         2.605E-04   AT NODE        288   DOF  3
   INSTANCE: WAIST-UP-1                                                                      
 LARGEST CORRECTION TO DISP.       -7.088E-05   AT NODE        499   DOF  3
   INSTANCE: WAIST-UP-1                                                                      
          FORCE     EQUILIBRIUM NOT ACHIEVED WITHIN TOLERANCE.

 AVERAGE MOMENT                     2.057E-08   TIME AVG. MOMENT      1.000E-02
 LARGEST RESIDUAL MOMENT           -2.577E-08   AT NODE        771   DOF  4
   INSTANCE: WAIST-MIDDLE-1                                                                  
 LARGEST INCREMENT OF ROTATION     -1.650E-02   AT NODE         22   DOF  4
   INSTANCE: WAIST-UP-1                                                                      
 LARGEST CORRECTION TO ROTATION     4.832E-03   AT NODE         90   DOF  4
   INSTANCE: WAIST-UP-1                                                                      
          THERE IS ZERO MOMENT    EVERYWHERE
 

 ***WARNING: THERE IS ZERO MOMENT EVERYWHERE IN THE MODEL BASED ON THE DEFAULT 
             CRITERION. PLEASE CHECK THE VALUE OF THE AVERAGE MOMENT DURING THE 
             CURRENT ITERATION TO VERIFY THAT THE MOMENT IS SMALL ENOUGH TO BE 
             TREATED AS ZERO. IF NOT, PLEASE USE THE SOLUTION CONTROLS TO RESET 
             THE CRITERION FOR ZERO MOMENT.

 ==> quasi-Newton: applying BFGS update  1

  USING THE DIRECT SOLVER WITH   5 PROCESSORS

     CHECK POINT   START OF SOLVER    

  NUMBER OF EQUATIONS =     34476     NUMBER OF RHS =    1
  NUMBER OF FLOATING PT. OPERATIONS =  7.83E+08

     CHECK POINT  END OF SOLVER       

       ELAPSED USER TIME (SEC)      =  0.40000    
       ELAPSED SYSTEM TIME (SEC)    =  0.10000    
       ELAPSED TOTAL CPU TIME (SEC) =  0.50000    
       ELAPSED WALLCLOCK TIME (SEC) =          0
 ==> quasi-Newton:  skipped BFGS update  1

               CONVERGENCE CHECKS FOR EQUILIBRIUM ITERATION     2


 AVERAGE FORCE                      1.337E-04   TIME AVG. FORCE       7.484E-05
 LARGEST RESIDUAL FORCE             2.977E-06   AT NODE        460   DOF  2
   INSTANCE: WAIST-UP-1                                                                      
 LARGEST INCREMENT OF DISP.         2.583E-04   AT NODE        288   DOF  3
   INSTANCE: WAIST-UP-1                                                                      
 LARGEST CORRECTION TO DISP.       -2.631E-06   AT NODE        499   DOF  3
   INSTANCE: WAIST-UP-1                                                                      
          FORCE     EQUILIBRIUM NOT ACHIEVED WITHIN TOLERANCE.

 AVERAGE MOMENT                     2.056E-08   TIME AVG. MOMENT      1.000E-02
 LARGEST RESIDUAL MOMENT            1.016E-09   AT NODE        460   DOF  4
   INSTANCE: WAIST-UP-1                                                                      
 LARGEST INCREMENT OF ROTATION     -1.624E-02   AT NODE         22   DOF  4
   INSTANCE: WAIST-UP-1                                                                      
 LARGEST CORRECTION TO ROTATION     2.739E-04   AT NODE         90   DOF  4
   INSTANCE: WAIST-UP-1                                                                      
          THERE IS ZERO MOMENT    EVERYWHERE
 

 ***WARNING: THERE IS ZERO MOMENT EVERYWHERE IN THE MODEL BASED ON THE DEFAULT 
             CRITERION. PLEASE CHECK THE VALUE OF THE AVERAGE MOMENT DURING THE 
             CURRENT ITERATION TO VERIFY THAT THE MOMENT IS SMALL ENOUGH TO BE 
             TREATED AS ZERO. IF NOT, PLEASE USE THE SOLUTION CONTROLS TO RESET 
             THE CRITERION FOR ZERO MOMENT.

 ==> quasi-Newton: applying BFGS update  1

  USING THE DIRECT SOLVER WITH   5 PROCESSORS

     CHECK POINT   START OF SOLVER    

  NUMBER OF EQUATIONS =     34476     NUMBER OF RHS =    1
  NUMBER OF FLOATING PT. OPERATIONS =  7.83E+08

     CHECK POINT  END OF SOLVER       

       ELAPSED USER TIME (SEC)      =  0.10000    
       ELAPSED SYSTEM TIME (SEC)    =   0.0000    
       ELAPSED TOTAL CPU TIME (SEC) =  0.10000    
       ELAPSED WALLCLOCK TIME (SEC) =          0

               CONVERGENCE CHECKS FOR EQUILIBRIUM ITERATION     3


 AVERAGE FORCE                      1.337E-04   TIME AVG. FORCE       7.484E-05
 LARGEST RESIDUAL FORCE             3.686E-08   AT NODE        460   DOF  2
   INSTANCE: WAIST-UP-1                                                                      
 LARGEST INCREMENT OF DISP.         2.581E-04   AT NODE        288   DOF  3
   INSTANCE: WAIST-UP-1                                                                      
 LARGEST CORRECTION TO DISP.       -2.203E-07   AT NODE        499   DOF  3
   INSTANCE: WAIST-UP-1                                                                      
          THE FORCE     EQUILIBRIUM EQUATIONS HAVE CONVERGED

 AVERAGE MOMENT                     2.056E-08   TIME AVG. MOMENT      1.000E-02
 LARGEST RESIDUAL MOMENT            1.166E-11   AT NODE        771   DOF  4
   INSTANCE: WAIST-MIDDLE-1                                                                  
 LARGEST INCREMENT OF ROTATION     -1.621E-02   AT NODE         22   DOF  4
   INSTANCE: WAIST-UP-1                                                                      
 LARGEST CORRECTION TO ROTATION     2.457E-05   AT NODE         90   DOF  4
   INSTANCE: WAIST-UP-1                                                                      
          THERE IS ZERO MOMENT    EVERYWHERE
 

 ***WARNING: THERE IS ZERO MOMENT EVERYWHERE IN THE MODEL BASED ON THE DEFAULT 
             CRITERION. PLEASE CHECK THE VALUE OF THE AVERAGE MOMENT DURING THE 
             CURRENT ITERATION TO VERIFY THAT THE MOMENT IS SMALL ENOUGH TO BE 
             TREATED AS ZERO. IF NOT, PLEASE USE THE SOLUTION CONTROLS TO RESET 
             THE CRITERION FOR ZERO MOMENT.
          TIME INCREMENT MAY NOW INCREASE TO    1.709E-02

 ITERATION SUMMARY FOR THE INCREMENT:   3 TOTAL ITERATIONS, OF WHICH
   0 ARE SEVERE DISCONTINUITY ITERATIONS AND  3 ARE EQUILIBRIUM ITERATIONS.

 TIME INCREMENT COMPLETED  1.139E-02,  FRACTION OF STEP COMPLETED  3.317E-02
 STEP TIME COMPLETED       3.317E-02,  TOTAL TIME COMPLETED        3.317E-02


  INCREMENT     9 STARTS. ATTEMPT NUMBER  1, TIME INCREMENT  1.709E-02

 ==> quasi-Newton: performing full factorization

  USING THE DIRECT SOLVER WITH   5 PROCESSORS

     CHECK POINT   START OF SOLVER    

  NUMBER OF EQUATIONS =     34476     NUMBER OF RHS =    1
  NUMBER OF FLOATING PT. OPERATIONS =  7.83E+08

     CHECK POINT  END OF SOLVER       

       ELAPSED USER TIME (SEC)      =  0.70000    
       ELAPSED SYSTEM TIME (SEC)    =  0.10000    
       ELAPSED TOTAL CPU TIME (SEC) =  0.80000    
       ELAPSED WALLCLOCK TIME (SEC) =          0

               CONVERGENCE CHECKS FOR EQUILIBRIUM ITERATION     1


 AVERAGE FORCE                      1.953E-04   TIME AVG. FORCE       9.893E-05
 LARGEST RESIDUAL FORCE             3.550E-05   AT NODE        131   DOF  2
   INSTANCE: WAIST-UP-1                                                                      
 LARGEST INCREMENT OF DISP.         2.998E-04   AT NODE        288   DOF  3
   INSTANCE: WAIST-UP-1                                                                      
 LARGEST CORRECTION TO DISP.       -8.735E-05   AT NODE        288   DOF  3
   INSTANCE: WAIST-UP-1                                                                      
          FORCE     EQUILIBRIUM NOT ACHIEVED WITHIN TOLERANCE.

 AVERAGE MOMENT                     2.866E-08   TIME AVG. MOMENT      1.000E-02
 LARGEST RESIDUAL MOMENT           -3.608E-08   AT NODE        771   DOF  4
   INSTANCE: WAIST-MIDDLE-1                                                                  
 LARGEST INCREMENT OF ROTATION     -1.865E-02   AT NODE         22   DOF  4
   INSTANCE: WAIST-UP-1                                                                      
 LARGEST CORRECTION TO ROTATION     5.765E-03   AT NODE         90   DOF  4
   INSTANCE: WAIST-UP-1                                                                      
          THERE IS ZERO MOMENT    EVERYWHERE
 

 ***WARNING: THERE IS ZERO MOMENT EVERYWHERE IN THE MODEL BASED ON THE DEFAULT 
             CRITERION. PLEASE CHECK THE VALUE OF THE AVERAGE MOMENT DURING THE 
             CURRENT ITERATION TO VERIFY THAT THE MOMENT IS SMALL ENOUGH TO BE 
             TREATED AS ZERO. IF NOT, PLEASE USE THE SOLUTION CONTROLS TO RESET 
             THE CRITERION FOR ZERO MOMENT.

 ==> quasi-Newton: applying BFGS update  1

  USING THE DIRECT SOLVER WITH   5 PROCESSORS

     CHECK POINT   START OF SOLVER    

  NUMBER OF EQUATIONS =     34476     NUMBER OF RHS =    1
  NUMBER OF FLOATING PT. OPERATIONS =  7.83E+08

     CHECK POINT  END OF SOLVER       

       ELAPSED USER TIME (SEC)      =  0.30000    
       ELAPSED SYSTEM TIME (SEC)    =   0.0000    
       ELAPSED TOTAL CPU TIME (SEC) =  0.30000    
       ELAPSED WALLCLOCK TIME (SEC) =          0
 ==> quasi-Newton:  skipped BFGS update  1

               CONVERGENCE CHECKS FOR EQUILIBRIUM ITERATION     2


 AVERAGE FORCE                      1.952E-04   TIME AVG. FORCE       9.891E-05
 LARGEST RESIDUAL FORCE             4.446E-06   AT NODE        460   DOF  2
   INSTANCE: WAIST-UP-1                                                                      
 LARGEST INCREMENT OF DISP.         2.970E-04   AT NODE        288   DOF  3
   INSTANCE: WAIST-UP-1                                                                      
 LARGEST CORRECTION TO DISP.       -3.352E-06   AT NODE        499   DOF  3
   INSTANCE: WAIST-UP-1                                                                      
          FORCE     EQUILIBRIUM NOT ACHIEVED WITHIN TOLERANCE.

 AVERAGE MOMENT                     2.864E-08   TIME AVG. MOMENT      1.000E-02
 LARGEST RESIDUAL MOMENT            1.736E-09   AT NODE        460   DOF  4
   INSTANCE: WAIST-UP-1                                                                      
 LARGEST INCREMENT OF ROTATION     -1.830E-02   AT NODE         22   DOF  4
   INSTANCE: WAIST-UP-1                                                                      
 LARGEST CORRECTION TO ROTATION     3.495E-04   AT NODE         90   DOF  4
   INSTANCE: WAIST-UP-1                                                                      
          THERE IS ZERO MOMENT    EVERYWHERE
 

 ***WARNING: THERE IS ZERO MOMENT EVERYWHERE IN THE MODEL BASED ON THE DEFAULT 
             CRITERION. PLEASE CHECK THE VALUE OF THE AVERAGE MOMENT DURING THE 
             CURRENT ITERATION TO VERIFY THAT THE MOMENT IS SMALL ENOUGH TO BE 
             TREATED AS ZERO. IF NOT, PLEASE USE THE SOLUTION CONTROLS TO RESET 
             THE CRITERION FOR ZERO MOMENT.

 ==> quasi-Newton: applying BFGS update  1

  USING THE DIRECT SOLVER WITH   5 PROCESSORS

     CHECK POINT   START OF SOLVER    

  NUMBER OF EQUATIONS =     34476     NUMBER OF RHS =    1
  NUMBER OF FLOATING PT. OPERATIONS =  7.83E+08

     CHECK POINT  END OF SOLVER       

       ELAPSED USER TIME (SEC)      =  0.40000    
       ELAPSED SYSTEM TIME (SEC)    =   0.0000    
       ELAPSED TOTAL CPU TIME (SEC) =  0.40000    
       ELAPSED WALLCLOCK TIME (SEC) =          1

               CONVERGENCE CHECKS FOR EQUILIBRIUM ITERATION     3


 AVERAGE FORCE                      1.952E-04   TIME AVG. FORCE       9.891E-05
 LARGEST RESIDUAL FORCE             8.574E-08   AT NODE        460   DOF  2
   INSTANCE: WAIST-UP-1                                                                      
 LARGEST INCREMENT OF DISP.         2.967E-04   AT NODE        288   DOF  3
   INSTANCE: WAIST-UP-1                                                                      
 LARGEST CORRECTION TO DISP.       -3.006E-07   AT NODE        499   DOF  3
   INSTANCE: WAIST-UP-1                                                                      
          THE FORCE     EQUILIBRIUM EQUATIONS HAVE CONVERGED

 AVERAGE MOMENT                     2.864E-08   TIME AVG. MOMENT      1.000E-02
 LARGEST RESIDUAL MOMENT            2.316E-11   AT NODE         22   DOF  4
   INSTANCE: WAIST-UP-1                                                                      
 LARGEST INCREMENT OF ROTATION     -1.827E-02   AT NODE         22   DOF  4
   INSTANCE: WAIST-UP-1                                                                      
 LARGEST CORRECTION TO ROTATION     3.386E-05   AT NODE         90   DOF  4
   INSTANCE: WAIST-UP-1                                                                      
          THERE IS ZERO MOMENT    EVERYWHERE
 

 ***WARNING: THERE IS ZERO MOMENT EVERYWHERE IN THE MODEL BASED ON THE DEFAULT 
             CRITERION. PLEASE CHECK THE VALUE OF THE AVERAGE MOMENT DURING THE 
             CURRENT ITERATION TO VERIFY THAT THE MOMENT IS SMALL ENOUGH TO BE 
             TREATED AS ZERO. IF NOT, PLEASE USE THE SOLUTION CONTROLS TO RESET 
             THE CRITERION FOR ZERO MOMENT.
          TIME INCREMENT MAY NOW INCREASE TO    2.563E-02

 ITERATION SUMMARY FOR THE INCREMENT:   3 TOTAL ITERATIONS, OF WHICH
   0 ARE SEVERE DISCONTINUITY ITERATIONS AND  3 ARE EQUILIBRIUM ITERATIONS.

 TIME INCREMENT COMPLETED  1.709E-02,  FRACTION OF STEP COMPLETED  5.026E-02
 STEP TIME COMPLETED       5.026E-02,  TOTAL TIME COMPLETED        5.026E-02


  INCREMENT    10 STARTS. ATTEMPT NUMBER  1, TIME INCREMENT  2.563E-02

 ==> quasi-Newton: performing full factorization

  USING THE DIRECT SOLVER WITH   5 PROCESSORS

     CHECK POINT   START OF SOLVER    

  NUMBER OF EQUATIONS =     34476     NUMBER OF RHS =    1
  NUMBER OF FLOATING PT. OPERATIONS =  7.83E+08

     CHECK POINT  END OF SOLVER       

       ELAPSED USER TIME (SEC)      =  0.60000    
       ELAPSED SYSTEM TIME (SEC)    =  0.10000    
       ELAPSED TOTAL CPU TIME (SEC) =  0.70000    
       ELAPSED WALLCLOCK TIME (SEC) =          0

               CONVERGENCE CHECKS FOR EQUILIBRIUM ITERATION     1


 AVERAGE FORCE                      2.846E-04   TIME AVG. FORCE       1.299E-04
 LARGEST RESIDUAL FORCE            -4.559E-05   AT NODE         91   DOF  2
   INSTANCE: WAIST-UP-1                                                                      
 LARGEST INCREMENT OF DISP.         3.477E-04   AT NODE        217   DOF  3
   INSTANCE: WAIST-UP-1                                                                      
 LARGEST CORRECTION TO DISP.       -1.027E-04   AT NODE        288   DOF  3
   INSTANCE: WAIST-UP-1                                                                      
          FORCE     EQUILIBRIUM NOT ACHIEVED WITHIN TOLERANCE.

 AVERAGE MOMENT                     3.943E-08   TIME AVG. MOMENT      1.000E-02
 LARGEST RESIDUAL MOMENT           -4.647E-08   AT NODE        771   DOF  4
   INSTANCE: WAIST-MIDDLE-1                                                                  
 LARGEST INCREMENT OF ROTATION      2.246E-02   AT NODE        102   DOF  4
   INSTANCE: WAIST-UP-1                                                                      
 LARGEST CORRECTION TO ROTATION     6.568E-03   AT NODE         90   DOF  4
   INSTANCE: WAIST-UP-1                                                                      
          THERE IS ZERO MOMENT    EVERYWHERE
 

 ***WARNING: THERE IS ZERO MOMENT EVERYWHERE IN THE MODEL BASED ON THE DEFAULT 
             CRITERION. PLEASE CHECK THE VALUE OF THE AVERAGE MOMENT DURING THE 
             CURRENT ITERATION TO VERIFY THAT THE MOMENT IS SMALL ENOUGH TO BE 
             TREATED AS ZERO. IF NOT, PLEASE USE THE SOLUTION CONTROLS TO RESET 
             THE CRITERION FOR ZERO MOMENT.

 ==> quasi-Newton: applying BFGS update  1

  USING THE DIRECT SOLVER WITH   5 PROCESSORS

     CHECK POINT   START OF SOLVER    

  NUMBER OF EQUATIONS =     34476     NUMBER OF RHS =    1
  NUMBER OF FLOATING PT. OPERATIONS =  7.83E+08

     CHECK POINT  END OF SOLVER       

       ELAPSED USER TIME (SEC)      =  0.30000    
       ELAPSED SYSTEM TIME (SEC)    =   0.0000    
       ELAPSED TOTAL CPU TIME (SEC) =  0.30000    
       ELAPSED WALLCLOCK TIME (SEC) =          0
 ==> quasi-Newton:  skipped BFGS update  1

               CONVERGENCE CHECKS FOR EQUILIBRIUM ITERATION     2


 AVERAGE FORCE                      2.844E-04   TIME AVG. FORCE       1.298E-04
 LARGEST RESIDUAL FORCE            -7.763E-06   AT NODE         91   DOF  2
   INSTANCE: WAIST-UP-1                                                                      
 LARGEST INCREMENT OF DISP.         3.451E-04   AT NODE        217   DOF  3
   INSTANCE: WAIST-UP-1                                                                      
 LARGEST CORRECTION TO DISP.       -3.766E-06   AT NODE        499   DOF  3
   INSTANCE: WAIST-UP-1                                                                      
          FORCE     EQUILIBRIUM NOT ACHIEVED WITHIN TOLERANCE.

 AVERAGE MOMENT                     3.939E-08   TIME AVG. MOMENT      1.000E-02
 LARGEST RESIDUAL MOMENT            2.524E-09   AT NODE        460   DOF  4
   INSTANCE: WAIST-UP-1                                                                      
 LARGEST INCREMENT OF ROTATION      2.212E-02   AT NODE        338   DOF  4
   INSTANCE: WAIST-UP-1                                                                      
 LARGEST CORRECTION TO ROTATION     4.022E-04   AT NODE         90   DOF  4
   INSTANCE: WAIST-UP-1                                                                      
          THERE IS ZERO MOMENT    EVERYWHERE
 

 ***WARNING: THERE IS ZERO MOMENT EVERYWHERE IN THE MODEL BASED ON THE DEFAULT 
             CRITERION. PLEASE CHECK THE VALUE OF THE AVERAGE MOMENT DURING THE 
             CURRENT ITERATION TO VERIFY THAT THE MOMENT IS SMALL ENOUGH TO BE 
             TREATED AS ZERO. IF NOT, PLEASE USE THE SOLUTION CONTROLS TO RESET 
             THE CRITERION FOR ZERO MOMENT.

 ==> quasi-Newton: applying BFGS update  1

  USING THE DIRECT SOLVER WITH   5 PROCESSORS

     CHECK POINT   START OF SOLVER    

  NUMBER OF EQUATIONS =     34476     NUMBER OF RHS =    1
  NUMBER OF FLOATING PT. OPERATIONS =  7.83E+08

     CHECK POINT  END OF SOLVER       

       ELAPSED USER TIME (SEC)      =  0.20000    
       ELAPSED SYSTEM TIME (SEC)    =   0.0000    
       ELAPSED TOTAL CPU TIME (SEC) =  0.20000    
       ELAPSED WALLCLOCK TIME (SEC) =          0

               CONVERGENCE CHECKS FOR EQUILIBRIUM ITERATION     3


 AVERAGE FORCE                      2.844E-04   TIME AVG. FORCE       1.298E-04
 LARGEST RESIDUAL FORCE             1.094E-07   AT NODE        460   DOF  2
   INSTANCE: WAIST-UP-1                                                                      
 LARGEST INCREMENT OF DISP.         3.449E-04   AT NODE        217   DOF  3
   INSTANCE: WAIST-UP-1                                                                      
 LARGEST CORRECTION TO DISP.       -3.414E-07   AT NODE        499   DOF  3
   INSTANCE: WAIST-UP-1                                                                      
          THE FORCE     EQUILIBRIUM EQUATIONS HAVE CONVERGED

 AVERAGE MOMENT                     3.939E-08   TIME AVG. MOMENT      1.000E-02
 LARGEST RESIDUAL MOMENT           -3.319E-11   AT NODE        227   DOF  5
   INSTANCE: WAIST-UP-1                                                                      
 LARGEST INCREMENT OF ROTATION      2.211E-02   AT NODE        338   DOF  4
   INSTANCE: WAIST-UP-1                                                                      
 LARGEST CORRECTION TO ROTATION     3.966E-05   AT NODE         90   DOF  4
   INSTANCE: WAIST-UP-1                                                                      
          THERE IS ZERO MOMENT    EVERYWHERE
 

 ***WARNING: THERE IS ZERO MOMENT EVERYWHERE IN THE MODEL BASED ON THE DEFAULT 
             CRITERION. PLEASE CHECK THE VALUE OF THE AVERAGE MOMENT DURING THE 
             CURRENT ITERATION TO VERIFY THAT THE MOMENT IS SMALL ENOUGH TO BE 
             TREATED AS ZERO. IF NOT, PLEASE USE THE SOLUTION CONTROLS TO RESET 
             THE CRITERION FOR ZERO MOMENT.
          TIME INCREMENT MAY NOW INCREASE TO    3.844E-02

 ITERATION SUMMARY FOR THE INCREMENT:   3 TOTAL ITERATIONS, OF WHICH
   0 ARE SEVERE DISCONTINUITY ITERATIONS AND  3 ARE EQUILIBRIUM ITERATIONS.

 TIME INCREMENT COMPLETED  2.563E-02,  FRACTION OF STEP COMPLETED  7.589E-02
 STEP TIME COMPLETED       7.589E-02,  TOTAL TIME COMPLETED        7.589E-02


  INCREMENT    11 STARTS. ATTEMPT NUMBER  1, TIME INCREMENT  3.844E-02

 ==> quasi-Newton: performing full factorization

  USING THE DIRECT SOLVER WITH   5 PROCESSORS

     CHECK POINT   START OF SOLVER    

  NUMBER OF EQUATIONS =     34476     NUMBER OF RHS =    1
  NUMBER OF FLOATING PT. OPERATIONS =  7.83E+08

     CHECK POINT  END OF SOLVER       

       ELAPSED USER TIME (SEC)      =  0.40000    
       ELAPSED SYSTEM TIME (SEC)    =  0.10000    
       ELAPSED TOTAL CPU TIME (SEC) =  0.50000    
       ELAPSED WALLCLOCK TIME (SEC) =          0

               CONVERGENCE CHECKS FOR EQUILIBRIUM ITERATION     1


 AVERAGE FORCE                      4.135E-04   TIME AVG. FORCE       1.703E-04
 LARGEST RESIDUAL FORCE            -8.089E-05   AT NODE         91   DOF  2
   INSTANCE: WAIST-UP-1                                                                      
 LARGEST INCREMENT OF DISP.         4.119E-04   AT NODE        217   DOF  3
   INSTANCE: WAIST-UP-1                                                                      
 LARGEST CORRECTION TO DISP.       -1.150E-04   AT NODE        288   DOF  3
   INSTANCE: WAIST-UP-1                                                                      
          FORCE     EQUILIBRIUM NOT ACHIEVED WITHIN TOLERANCE.

 AVERAGE MOMENT                     5.384E-08   TIME AVG. MOMENT      1.000E-02
 LARGEST RESIDUAL MOMENT           -5.540E-08   AT NODE        771   DOF  4
   INSTANCE: WAIST-MIDDLE-1                                                                  
 LARGEST INCREMENT OF ROTATION      2.803E-02   AT NODE        338   DOF  4
   INSTANCE: WAIST-UP-1                                                                      
 LARGEST CORRECTION TO ROTATION     7.254E-03   AT NODE         90   DOF  4
   INSTANCE: WAIST-UP-1                                                                      
          THERE IS ZERO MOMENT    EVERYWHERE
 

 ***WARNING: THERE IS ZERO MOMENT EVERYWHERE IN THE MODEL BASED ON THE DEFAULT 
             CRITERION. PLEASE CHECK THE VALUE OF THE AVERAGE MOMENT DURING THE 
             CURRENT ITERATION TO VERIFY THAT THE MOMENT IS SMALL ENOUGH TO BE 
             TREATED AS ZERO. IF NOT, PLEASE USE THE SOLUTION CONTROLS TO RESET 
             THE CRITERION FOR ZERO MOMENT.

 ==> quasi-Newton: applying BFGS update  1

  USING THE DIRECT SOLVER WITH   5 PROCESSORS

     CHECK POINT   START OF SOLVER    

  NUMBER OF EQUATIONS =     34476     NUMBER OF RHS =    1
  NUMBER OF FLOATING PT. OPERATIONS =  7.83E+08

     CHECK POINT  END OF SOLVER       

       ELAPSED USER TIME (SEC)      =  0.20000    
       ELAPSED SYSTEM TIME (SEC)    =   0.0000    
       ELAPSED TOTAL CPU TIME (SEC) =  0.20000    
       ELAPSED WALLCLOCK TIME (SEC) =          0
 ==> quasi-Newton:  skipped BFGS update  1

               CONVERGENCE CHECKS FOR EQUILIBRIUM ITERATION     2


 AVERAGE FORCE                      4.131E-04   TIME AVG. FORCE       1.703E-04
 LARGEST RESIDUAL FORCE            -1.807E-05   AT NODE         91   DOF  2
   INSTANCE: WAIST-UP-1                                                                      
 LARGEST INCREMENT OF DISP.         4.090E-04   AT NODE        217   DOF  3
   INSTANCE: WAIST-UP-1                                                                      
 LARGEST CORRECTION TO DISP.       -3.848E-06   AT NODE        499   DOF  3
   INSTANCE: WAIST-UP-1                                                                      
          FORCE     EQUILIBRIUM NOT ACHIEVED WITHIN TOLERANCE.

 AVERAGE MOMENT                     5.378E-08   TIME AVG. MOMENT      1.000E-02
 LARGEST RESIDUAL MOMENT            3.304E-09   AT NODE        460   DOF  4
   INSTANCE: WAIST-UP-1                                                                      
 LARGEST INCREMENT OF ROTATION      2.765E-02   AT NODE        338   DOF  4
   INSTANCE: WAIST-UP-1                                                                      
 LARGEST CORRECTION TO ROTATION    -6.630E-04   AT NODE         35   DOF  4
   INSTANCE: WAIST-UP-1                                                                      
          THERE IS ZERO MOMENT    EVERYWHERE
 

 ***WARNING: THERE IS ZERO MOMENT EVERYWHERE IN THE MODEL BASED ON THE DEFAULT 
             CRITERION. PLEASE CHECK THE VALUE OF THE AVERAGE MOMENT DURING THE 
             CURRENT ITERATION TO VERIFY THAT THE MOMENT IS SMALL ENOUGH TO BE 
             TREATED AS ZERO. IF NOT, PLEASE USE THE SOLUTION CONTROLS TO RESET 
             THE CRITERION FOR ZERO MOMENT.

 ==> quasi-Newton: applying BFGS update  1

  USING THE DIRECT SOLVER WITH   5 PROCESSORS

     CHECK POINT   START OF SOLVER    

  NUMBER OF EQUATIONS =     34476     NUMBER OF RHS =    1
  NUMBER OF FLOATING PT. OPERATIONS =  7.83E+08

     CHECK POINT  END OF SOLVER       

       ELAPSED USER TIME (SEC)      =  0.10000    
       ELAPSED SYSTEM TIME (SEC)    =  0.10000    
       ELAPSED TOTAL CPU TIME (SEC) =  0.20000    
       ELAPSED WALLCLOCK TIME (SEC) =          0

               CONVERGENCE CHECKS FOR EQUILIBRIUM ITERATION     3


 AVERAGE FORCE                      4.131E-04   TIME AVG. FORCE       1.703E-04
 LARGEST RESIDUAL FORCE            -3.062E-07   AT NODE        252   DOF  2
   INSTANCE: WAIST-UP-1                                                                      
 LARGEST INCREMENT OF DISP.         4.088E-04   AT NODE        217   DOF  3
   INSTANCE: WAIST-UP-1                                                                      
 LARGEST CORRECTION TO DISP.       -4.246E-07   AT NODE         50   DOF  3
   INSTANCE: WAIST-UP-1                                                                      
          THE FORCE     EQUILIBRIUM EQUATIONS HAVE CONVERGED

 AVERAGE MOMENT                     5.378E-08   TIME AVG. MOMENT      1.000E-02
 LARGEST RESIDUAL MOMENT           -8.269E-11   AT NODE        227   DOF  5
   INSTANCE: WAIST-UP-1                                                                      
 LARGEST INCREMENT OF ROTATION      2.762E-02   AT NODE        338   DOF  4
   INSTANCE: WAIST-UP-1                                                                      
 LARGEST CORRECTION TO ROTATION    -7.347E-05   AT NODE         35   DOF  4
   INSTANCE: WAIST-UP-1                                                                      
          THERE IS ZERO MOMENT    EVERYWHERE
 

 ***WARNING: THERE IS ZERO MOMENT EVERYWHERE IN THE MODEL BASED ON THE DEFAULT 
             CRITERION. PLEASE CHECK THE VALUE OF THE AVERAGE MOMENT DURING THE 
             CURRENT ITERATION TO VERIFY THAT THE MOMENT IS SMALL ENOUGH TO BE 
             TREATED AS ZERO. IF NOT, PLEASE USE THE SOLUTION CONTROLS TO RESET 
             THE CRITERION FOR ZERO MOMENT.
          TIME INCREMENT MAY NOW INCREASE TO    5.767E-02

 ITERATION SUMMARY FOR THE INCREMENT:   3 TOTAL ITERATIONS, OF WHICH
   0 ARE SEVERE DISCONTINUITY ITERATIONS AND  3 ARE EQUILIBRIUM ITERATIONS.

 TIME INCREMENT COMPLETED  3.844E-02,  FRACTION OF STEP COMPLETED  0.114    
 STEP TIME COMPLETED       0.114    ,  TOTAL TIME COMPLETED        0.114    


  INCREMENT    12 STARTS. ATTEMPT NUMBER  1, TIME INCREMENT  5.767E-02

 ==> quasi-Newton: performing full factorization

  USING THE DIRECT SOLVER WITH   5 PROCESSORS

     CHECK POINT   START OF SOLVER    

  NUMBER OF EQUATIONS =     34476     NUMBER OF RHS =    1
  NUMBER OF FLOATING PT. OPERATIONS =  7.83E+08

     CHECK POINT  END OF SOLVER       

       ELAPSED USER TIME (SEC)      =  0.60000    
       ELAPSED SYSTEM TIME (SEC)    =  0.10000    
       ELAPSED TOTAL CPU TIME (SEC) =  0.70000    
       ELAPSED WALLCLOCK TIME (SEC) =          0

               CONVERGENCE CHECKS FOR EQUILIBRIUM ITERATION     1


 AVERAGE FORCE                      5.994E-04   TIME AVG. FORCE       2.239E-04
 LARGEST RESIDUAL FORCE            -1.131E-04   AT NODE         91   DOF  2
   INSTANCE: WAIST-UP-1                                                                      
 LARGEST INCREMENT OF DISP.         4.948E-04   AT NODE        484   DOF  3
   INSTANCE: WAIST-UP-1                                                                      
 LARGEST CORRECTION TO DISP.       -1.246E-04   AT NODE        288   DOF  3
   INSTANCE: WAIST-UP-1                                                                      
          FORCE     EQUILIBRIUM NOT ACHIEVED WITHIN TOLERANCE.

 AVERAGE MOMENT                     7.339E-08   TIME AVG. MOMENT      1.000E-02
 LARGEST RESIDUAL MOMENT           -6.336E-08   AT NODE        771   DOF  4
   INSTANCE: WAIST-MIDDLE-1                                                                  
 LARGEST INCREMENT OF ROTATION      3.421E-02   AT NODE        338   DOF  4
   INSTANCE: WAIST-UP-1                                                                      
 LARGEST CORRECTION TO ROTATION    -8.009E-03   AT NODE        102   DOF  4
   INSTANCE: WAIST-UP-1                                                                      
          THERE IS ZERO MOMENT    EVERYWHERE
 

 ***WARNING: THERE IS ZERO MOMENT EVERYWHERE IN THE MODEL BASED ON THE DEFAULT 
             CRITERION. PLEASE CHECK THE VALUE OF THE AVERAGE MOMENT DURING THE 
             CURRENT ITERATION TO VERIFY THAT THE MOMENT IS SMALL ENOUGH TO BE 
             TREATED AS ZERO. IF NOT, PLEASE USE THE SOLUTION CONTROLS TO RESET 
             THE CRITERION FOR ZERO MOMENT.

 ==> quasi-Newton: applying BFGS update  1

  USING THE DIRECT SOLVER WITH   5 PROCESSORS

     CHECK POINT   START OF SOLVER    

  NUMBER OF EQUATIONS =     34476     NUMBER OF RHS =    1
  NUMBER OF FLOATING PT. OPERATIONS =  7.83E+08

     CHECK POINT  END OF SOLVER       

       ELAPSED USER TIME (SEC)      =   0.0000    
       ELAPSED SYSTEM TIME (SEC)    =   0.0000    
       ELAPSED TOTAL CPU TIME (SEC) =   0.0000    
       ELAPSED WALLCLOCK TIME (SEC) =          0
 ==> quasi-Newton:  skipped BFGS update  1

               CONVERGENCE CHECKS FOR EQUILIBRIUM ITERATION     2


 AVERAGE FORCE                      5.987E-04   TIME AVG. FORCE       2.238E-04
 LARGEST RESIDUAL FORCE            -3.115E-05   AT NODE         91   DOF  2
   INSTANCE: WAIST-UP-1                                                                      
 LARGEST INCREMENT OF DISP.         4.921E-04   AT NODE        484   DOF  3
   INSTANCE: WAIST-UP-1                                                                      
 LARGEST CORRECTION TO DISP.       -5.213E-06   AT NODE         50   DOF  3
   INSTANCE: WAIST-UP-1                                                                      
          FORCE     EQUILIBRIUM NOT ACHIEVED WITHIN TOLERANCE.

 AVERAGE MOMENT                     7.330E-08   TIME AVG. MOMENT      1.000E-02
 LARGEST RESIDUAL MOMENT           -4.266E-09   AT NODE        252   DOF  4
   INSTANCE: WAIST-UP-1                                                                      
 LARGEST INCREMENT OF ROTATION      3.352E-02   AT NODE        338   DOF  4
   INSTANCE: WAIST-UP-1                                                                      
 LARGEST CORRECTION TO ROTATION    -9.468E-04   AT NODE         35   DOF  4
   INSTANCE: WAIST-UP-1                                                                      
          THERE IS ZERO MOMENT    EVERYWHERE
 

 ***WARNING: THERE IS ZERO MOMENT EVERYWHERE IN THE MODEL BASED ON THE DEFAULT 
             CRITERION. PLEASE CHECK THE VALUE OF THE AVERAGE MOMENT DURING THE 
             CURRENT ITERATION TO VERIFY THAT THE MOMENT IS SMALL ENOUGH TO BE 
             TREATED AS ZERO. IF NOT, PLEASE USE THE SOLUTION CONTROLS TO RESET 
             THE CRITERION FOR ZERO MOMENT.

 ==> quasi-Newton: applying BFGS update  1

  USING THE DIRECT SOLVER WITH   5 PROCESSORS

     CHECK POINT   START OF SOLVER    

  NUMBER OF EQUATIONS =     34476     NUMBER OF RHS =    1
  NUMBER OF FLOATING PT. OPERATIONS =  7.83E+08

     CHECK POINT  END OF SOLVER       

       ELAPSED USER TIME (SEC)      =  0.10000    
       ELAPSED SYSTEM TIME (SEC)    =   0.0000    
       ELAPSED TOTAL CPU TIME (SEC) =  0.10000    
       ELAPSED WALLCLOCK TIME (SEC) =          0

               CONVERGENCE CHECKS FOR EQUILIBRIUM ITERATION     3


 AVERAGE FORCE                      5.987E-04   TIME AVG. FORCE       2.238E-04
 LARGEST RESIDUAL FORCE            -7.000E-07   AT NODE        252   DOF  2
   INSTANCE: WAIST-UP-1                                                                      
 LARGEST INCREMENT OF DISP.         4.919E-04   AT NODE        484   DOF  3
   INSTANCE: WAIST-UP-1                                                                      
 LARGEST CORRECTION TO DISP.       -6.803E-07   AT NODE         50   DOF  3
   INSTANCE: WAIST-UP-1                                                                      
          THE FORCE     EQUILIBRIUM EQUATIONS HAVE CONVERGED

 AVERAGE MOMENT                     7.329E-08   TIME AVG. MOMENT      1.000E-02
 LARGEST RESIDUAL MOMENT           -1.849E-10   AT NODE        227   DOF  5
   INSTANCE: WAIST-UP-1                                                                      
 LARGEST INCREMENT OF ROTATION      3.345E-02   AT NODE        338   DOF  4
   INSTANCE: WAIST-UP-1                                                                      
 LARGEST CORRECTION TO ROTATION    -1.219E-04   AT NODE         35   DOF  4
   INSTANCE: WAIST-UP-1                                                                      
          THERE IS ZERO MOMENT    EVERYWHERE
 

 ***WARNING: THERE IS ZERO MOMENT EVERYWHERE IN THE MODEL BASED ON THE DEFAULT 
             CRITERION. PLEASE CHECK THE VALUE OF THE AVERAGE MOMENT DURING THE 
             CURRENT ITERATION TO VERIFY THAT THE MOMENT IS SMALL ENOUGH TO BE 
             TREATED AS ZERO. IF NOT, PLEASE USE THE SOLUTION CONTROLS TO RESET 
             THE CRITERION FOR ZERO MOMENT.
          TIME INCREMENT MAY NOW INCREASE TO    8.650E-02

 ITERATION SUMMARY FOR THE INCREMENT:   3 TOTAL ITERATIONS, OF WHICH
   0 ARE SEVERE DISCONTINUITY ITERATIONS AND  3 ARE EQUILIBRIUM ITERATIONS.

 TIME INCREMENT COMPLETED  5.767E-02,  FRACTION OF STEP COMPLETED  0.172    
 STEP TIME COMPLETED       0.172    ,  TOTAL TIME COMPLETED        0.172    


  INCREMENT    13 STARTS. ATTEMPT NUMBER  1, TIME INCREMENT  8.650E-02

 ==> quasi-Newton: performing full factorization

  USING THE DIRECT SOLVER WITH   5 PROCESSORS

     CHECK POINT   START OF SOLVER    

  NUMBER OF EQUATIONS =     34476     NUMBER OF RHS =    1
  NUMBER OF FLOATING PT. OPERATIONS =  7.83E+08

     CHECK POINT  END OF SOLVER       

       ELAPSED USER TIME (SEC)      =  0.40000    
       ELAPSED SYSTEM TIME (SEC)    =   0.0000    
       ELAPSED TOTAL CPU TIME (SEC) =  0.40000    
       ELAPSED WALLCLOCK TIME (SEC) =          0

               CONVERGENCE CHECKS FOR EQUILIBRIUM ITERATION     1


 AVERAGE FORCE                      8.645E-04   TIME AVG. FORCE       2.950E-04
 LARGEST RESIDUAL FORCE            -1.314E-04   AT NODE         91   DOF  2
   INSTANCE: WAIST-UP-1                                                                      
 LARGEST INCREMENT OF DISP.         6.166E-04   AT NODE        484   DOF  3
   INSTANCE: WAIST-UP-1                                                                      
 LARGEST CORRECTION TO DISP.       -1.345E-04   AT NODE        217   DOF  3
   INSTANCE: WAIST-UP-1                                                                      
          FORCE     EQUILIBRIUM NOT ACHIEVED WITHIN TOLERANCE.

 AVERAGE MOMENT                     1.001E-07   TIME AVG. MOMENT      1.001E-07
 LARGEST RESIDUAL MOMENT           -9.382E-08   AT NODE          7   DOF  4
   INSTANCE: WAIST-UP-1                                                                      
 LARGEST INCREMENT OF ROTATION      4.075E-02   AT NODE        338   DOF  4
   INSTANCE: WAIST-UP-1                                                                      
 LARGEST CORRECTION TO ROTATION    -9.418E-03   AT NODE        338   DOF  4
   INSTANCE: WAIST-UP-1                                                                      
          MOMENT    EQUILIBRIUM NOT ACHIEVED WITHIN TOLERANCE.

 ==> quasi-Newton: applying BFGS update  1

  USING THE DIRECT SOLVER WITH   5 PROCESSORS

     CHECK POINT   START OF SOLVER    

  NUMBER OF EQUATIONS =     34476     NUMBER OF RHS =    1
  NUMBER OF FLOATING PT. OPERATIONS =  7.83E+08

     CHECK POINT  END OF SOLVER       

       ELAPSED USER TIME (SEC)      =  0.20000    
       ELAPSED SYSTEM TIME (SEC)    =   0.0000    
       ELAPSED TOTAL CPU TIME (SEC) =  0.20000    
       ELAPSED WALLCLOCK TIME (SEC) =          0
 ==> quasi-Newton:  skipped BFGS update  1

               CONVERGENCE CHECKS FOR EQUILIBRIUM ITERATION     2


[...]
          ROTATION CORRECTION TOO LARGE COMPARED TO ROTATION INCREMENT

 ==> quasi-Newton: applying BFGS update  1

  USING THE DIRECT SOLVER WITH   5 PROCESSORS

     CHECK POINT   START OF SOLVER    

  NUMBER OF EQUATIONS =     34952     NUMBER OF RHS =    1
  NUMBER OF FLOATING PT. OPERATIONS =  1.97E+09

     CHECK POINT  END OF SOLVER       

       ELAPSED USER TIME (SEC)      =  0.10000    
       ELAPSED SYSTEM TIME (SEC)    =   0.0000    
       ELAPSED TOTAL CPU TIME (SEC) =  0.10000    
       ELAPSED WALLCLOCK TIME (SEC) =          0
 ==> quasi-Newton:  skipped BFGS update  1

               CONVERGENCE CHECKS FOR EQUILIBRIUM ITERATION     9

   MAX. PENETRATION ERROR 54.0337E-12  AT NODE WAIST-MIDDLE-1.636 OF CONTACT 
   PAIR (ASSEMBLY_NDE-12345-OUT_CNS_,ASSEMBLY_MEMBRANE-1_SURF-INN)
   MAX. CONTACT FORCE ERROR 1.06465E-03 AT NODE WAIST-MIDDLE-1.636 OF CONTACT 
   PAIR (ASSEMBLY_NDE-12345-OUT_CNS_,ASSEMBLY_MEMBRANE-1_SURF-INN)
          THE CONTACT CONSTRAINTS HAVE CONVERGED.

 AVERAGE FORCE                      3.600E-02   TIME AVG. FORCE       1.558E-02
 LARGEST RESIDUAL FORCE            -2.277E-07   AT NODE        328   DOF  2
   INSTANCE: WAIST-DOWN-1                                                                    
 LARGEST INCREMENT OF DISP.        -5.788E-07   AT NODE        536   DOF  1
   INSTANCE: WAIST-DOWN-1                                                                    
 LARGEST CORRECTION TO DISP.       -1.255E-08   AT NODE        536   DOF  1
   INSTANCE: WAIST-DOWN-1                                                                    
 ESTIMATE OF DISP.    CORRECTION    2.281E-13
 FORCE     EQUILIB. ACCEPTED BASED ON SMALL RESIDUAL AND ESTIMATED CORRECTION

 AVERAGE MOMENT                     3.260E-06   TIME AVG. MOMENT      1.653E-06
 LARGEST RESIDUAL MOMENT           -4.427E-09   AT NODE        536   DOF  5
   INSTANCE: WAIST-DOWN-1                                                                    
 LARGEST INCREMENT OF ROTATION     -1.889E-02   AT NODE        557   DOF  4
   INSTANCE: WAIST-DOWN-1                                                                    
 LARGEST CORRECTION TO ROTATION    -4.292E-04   AT NODE        557   DOF  4
   INSTANCE: WAIST-DOWN-1                                                                    
          ROTATION CORRECTION TOO LARGE COMPARED TO ROTATION INCREMENT

 ==> quasi-Newton: applying BFGS update  1

  USING THE DIRECT SOLVER WITH   5 PROCESSORS

     CHECK POINT   START OF SOLVER    

  NUMBER OF EQUATIONS =     34952     NUMBER OF RHS =    1
  NUMBER OF FLOATING PT. OPERATIONS =  1.97E+09

     CHECK POINT  END OF SOLVER       

       ELAPSED USER TIME (SEC)      =  0.40000    
       ELAPSED SYSTEM TIME (SEC)    =   0.0000    
       ELAPSED TOTAL CPU TIME (SEC) =  0.40000    
       ELAPSED WALLCLOCK TIME (SEC) =          0

               CONVERGENCE CHECKS FOR EQUILIBRIUM ITERATION    10
               LINE SEARCH SCALE FACTOR = 1.185E-03

   MAX. PENETRATION ERROR -496.923E-12   AT NODE WAIST-MIDDLE-1.636 OF CONTACT 
   PAIR (ASSEMBLY_NDE-12345-OUT_CNS_,ASSEMBLY_MEMBRANE-1_SURF-INN)
   MAX. CONTACT FORCE ERROR -9.79110E-03 AT NODE WAIST-MIDDLE-1.636 OF CONTACT 
   PAIR (ASSEMBLY_NDE-12345-OUT_CNS_,ASSEMBLY_MEMBRANE-1_SURF-INN)
          THE CONTACT CONSTRAINTS HAVE CONVERGED.

 AVERAGE FORCE                      3.600E-02   TIME AVG. FORCE       1.558E-02
 LARGEST RESIDUAL FORCE             1.916E-04   AT NODE        328   DOF  2
   INSTANCE: WAIST-DOWN-1                                                                    
 LARGEST INCREMENT OF DISP.        -5.927E-07   AT NODE        536   DOF  1
   INSTANCE: WAIST-DOWN-1                                                                    
 LARGEST CORRECTION TO DISP.       -1.384E-08   AT NODE        536   DOF  1
   INSTANCE: WAIST-DOWN-1                                                                    
          FORCE     EQUILIBRIUM NOT ACHIEVED WITHIN TOLERANCE.

 AVERAGE MOMENT                     3.260E-06   TIME AVG. MOMENT      1.653E-06
 LARGEST RESIDUAL MOMENT            8.458E-08   AT NODE        328   DOF  6
   INSTANCE: WAIST-DOWN-1                                                                    
 LARGEST INCREMENT OF ROTATION     -1.936E-02   AT NODE        557   DOF  4
   INSTANCE: WAIST-DOWN-1                                                                    
 LARGEST CORRECTION TO ROTATION    -4.698E-04   AT NODE        557   DOF  4
   INSTANCE: WAIST-DOWN-1                                                                    
          MOMENT    EQUILIBRIUM NOT ACHIEVED WITHIN TOLERANCE.

 ==> quasi-Newton: applying BFGS update  2

  USING THE DIRECT SOLVER WITH   5 PROCESSORS

     CHECK POINT   START OF SOLVER    

  NUMBER OF EQUATIONS =     34952     NUMBER OF RHS =    1
  NUMBER OF FLOATING PT. OPERATIONS =  1.97E+09

     CHECK POINT  END OF SOLVER       

       ELAPSED USER TIME (SEC)      =  0.10000    
       ELAPSED SYSTEM TIME (SEC)    =   0.0000    
       ELAPSED TOTAL CPU TIME (SEC) =  0.10000    
       ELAPSED WALLCLOCK TIME (SEC) =          0

               CONVERGENCE CHECKS FOR EQUILIBRIUM ITERATION    11

   MAX. PENETRATION ERROR -15.3982E-09  AT NODE WAIST-MIDDLE-1.636 OF CONTACT 
   PAIR (ASSEMBLY_NDE-12345-OUT_CNS_,ASSEMBLY_MEMBRANE-1_SURF-INN)
   MAX. CONTACT FORCE ERROR -303.397E-03   AT NODE WAIST-MIDDLE-1.636 OF 
   CONTACT PAIR (ASSEMBLY_NDE-12345-OUT_CNS_,ASSEMBLY_MEMBRANE-1_SURF-INN)
          PENETRATION ERROR TOO LARGE COMPARED TO DISPLACEMENT INCREMENT.

 AVERAGE FORCE                      3.600E-02   TIME AVG. FORCE       1.558E-02
 LARGEST RESIDUAL FORCE             1.541E-05   AT NODE        636   DOF  1
   INSTANCE: WAIST-MIDDLE-1                                                                  
 LARGEST INCREMENT OF DISP.        -6.606E-07   AT NODE        536   DOF  1
   INSTANCE: WAIST-DOWN-1                                                                    
 LARGEST CORRECTION TO DISP.        3.901E-07   AT NODE         73   DOF  2
   INSTANCE: WAIST-MIDDLE-1                                                                  
 ESTIMATE OF DISP.    CORRECTION    5.646E-09
 FORCE     EQUILIB. ACCEPTED BASED ON SMALL RESIDUAL AND ESTIMATED CORRECTION

 AVERAGE MOMENT                     3.260E-06   TIME AVG. MOMENT      1.653E-06
 LARGEST RESIDUAL MOMENT           -3.391E-08   AT NODE        644   DOF  5
   INSTANCE: WAIST-MIDDLE-1                                                                  
 LARGEST INCREMENT OF ROTATION     -2.194E-02   AT NODE        557   DOF  4
   INSTANCE: WAIST-DOWN-1                                                                    
 LARGEST CORRECTION TO ROTATION    -2.577E-03   AT NODE        557   DOF  4
   INSTANCE: WAIST-DOWN-1                                                                    
          MOMENT    EQUILIBRIUM NOT ACHIEVED WITHIN TOLERANCE.

 ==> quasi-Newton: applying BFGS update  3

  USING THE DIRECT SOLVER WITH   5 PROCESSORS

     CHECK POINT   START OF SOLVER    

  NUMBER OF EQUATIONS =     34952     NUMBER OF RHS =    1
  NUMBER OF FLOATING PT. OPERATIONS =  1.97E+09

     CHECK POINT  END OF SOLVER       

       ELAPSED USER TIME (SEC)      =  0.20000    
       ELAPSED SYSTEM TIME (SEC)    =   0.0000    
       ELAPSED TOTAL CPU TIME (SEC) =  0.20000    
       ELAPSED WALLCLOCK TIME (SEC) =          0

               CONVERGENCE CHECKS FOR EQUILIBRIUM ITERATION    12

   MAX. PENETRATION ERROR -83.0879E-09  AT NODE WAIST-MIDDLE-1.636 OF CONTACT 
   PAIR (ASSEMBLY_NDE-12345-OUT_CNS_,ASSEMBLY_MEMBRANE-1_SURF-INN)
   MAX. CONTACT FORCE ERROR -1.63712     AT NODE WAIST-MIDDLE-1.636 OF CONTACT 
   PAIR (ASSEMBLY_NDE-12345-OUT_CNS_,ASSEMBLY_MEMBRANE-1_SURF-INN)
          PENETRATION ERROR TOO LARGE COMPARED TO DISPLACEMENT INCREMENT.

 AVERAGE FORCE                      3.600E-02   TIME AVG. FORCE       1.558E-02
 LARGEST RESIDUAL FORCE             8.315E-05   AT NODE        636   DOF  1
   INSTANCE: WAIST-MIDDLE-1                                                                  
 LARGEST INCREMENT OF DISP.        -7.926E-07   AT NODE        536   DOF  1
   INSTANCE: WAIST-DOWN-1                                                                    
 LARGEST CORRECTION TO DISP.       -1.325E-07   AT NODE        985   DOF  1
   INSTANCE: WAIST-DOWN-1                                                                    
          FORCE     EQUILIBRIUM NOT ACHIEVED WITHIN TOLERANCE.

 AVERAGE MOMENT                     3.260E-06   TIME AVG. MOMENT      1.653E-06
 LARGEST RESIDUAL MOMENT           -1.812E-07   AT NODE        644   DOF  5
   INSTANCE: WAIST-MIDDLE-1                                                                  
 LARGEST INCREMENT OF ROTATION     -2.796E-02   AT NODE        557   DOF  4
   INSTANCE: WAIST-DOWN-1                                                                    
 LARGEST CORRECTION TO ROTATION    -6.018E-03   AT NODE        557   DOF  4
   INSTANCE: WAIST-DOWN-1                                                                    
          MOMENT    EQUILIBRIUM NOT ACHIEVED WITHIN TOLERANCE.

Warning: diverging solution detected in quasi-Newton method.
Next iteration will use a new matrix decomposition


 ==> quasi-Newton: performing full factorization

  USING THE DIRECT SOLVER WITH   5 PROCESSORS

     CHECK POINT   START OF SOLVER    

  NUMBER OF EQUATIONS =     34952     NUMBER OF RHS =    1
  NUMBER OF FLOATING PT. OPERATIONS =  1.97E+09

     CHECK POINT  END OF SOLVER       

       ELAPSED USER TIME (SEC)      =  0.70000    
       ELAPSED SYSTEM TIME (SEC)    =  0.10000    
       ELAPSED TOTAL CPU TIME (SEC) =  0.80000    
       ELAPSED WALLCLOCK TIME (SEC) =          0

               CONVERGENCE CHECKS FOR EQUILIBRIUM ITERATION    13

   MAX. PENETRATION ERROR 600.040E-12   AT NODE WAIST-MIDDLE-1.370 OF CONTACT 
   PAIR (ASSEMBLY_NDE-12345-OUT_CNS_,ASSEMBLY_MEMBRANE-1_SURF-INN)
   MAX. CONTACT FORCE ERROR 11.8228E-03  AT NODE WAIST-MIDDLE-1.370 OF CONTACT 
   PAIR (ASSEMBLY_NDE-12345-OUT_CNS_,ASSEMBLY_MEMBRANE-1_SURF-INN)
          THE CONTACT CONSTRAINTS HAVE CONVERGED.

 AVERAGE FORCE                      3.600E-02   TIME AVG. FORCE       1.558E-02
 LARGEST RESIDUAL FORCE            -1.953E-06   AT NODE        328   DOF  2
   INSTANCE: WAIST-DOWN-1                                                                    
 LARGEST INCREMENT OF DISP.        -9.018E-07   AT NODE        536   DOF  1
   INSTANCE: WAIST-DOWN-1                                                                    
 LARGEST CORRECTION TO DISP.       -1.154E-07   AT NODE        877   DOF  1
   INSTANCE: MEMBRANE-1                                                                      
 ESTIMATE OF DISP.    CORRECTION   -7.428E-13
 FORCE     EQUILIB. ACCEPTED BASED ON SMALL RESIDUAL AND ESTIMATED CORRECTION

 AVERAGE MOMENT                     3.260E-06   TIME AVG. MOMENT      1.653E-06
 LARGEST RESIDUAL MOMENT           -1.224E-08   AT NODE        536   DOF  5
   INSTANCE: WAIST-DOWN-1                                                                    
 LARGEST INCREMENT OF ROTATION     -2.932E-02   AT NODE        557   DOF  4
   INSTANCE: WAIST-DOWN-1                                                                    
 LARGEST CORRECTION TO ROTATION    -1.359E-03   AT NODE        557   DOF  4
   INSTANCE: WAIST-DOWN-1                                                                    
          MOMENT    EQUILIBRIUM NOT ACHIEVED WITHIN TOLERANCE.

 ==> quasi-Newton: applying BFGS update  1

  USING THE DIRECT SOLVER WITH   5 PROCESSORS

     CHECK POINT   START OF SOLVER    

  NUMBER OF EQUATIONS =     34952     NUMBER OF RHS =    1
  NUMBER OF FLOATING PT. OPERATIONS =  1.97E+09

     CHECK POINT  END OF SOLVER       

       ELAPSED USER TIME (SEC)      =  0.10000    
       ELAPSED SYSTEM TIME (SEC)    =   0.0000    
       ELAPSED TOTAL CPU TIME (SEC) =  0.10000    
       ELAPSED WALLCLOCK TIME (SEC) =          0
 ==> quasi-Newton:  skipped BFGS update  1

               CONVERGENCE CHECKS FOR EQUILIBRIUM ITERATION    14

   MAX. PENETRATION ERROR 90.1229E-12  AT NODE WAIST-MIDDLE-1.157 OF CONTACT 
   PAIR (ASSEMBLY_NDE-12345-OUT_CNS_,ASSEMBLY_MEMBRANE-1_SURF-INN)
   MAX. CONTACT FORCE ERROR 1.77573E-03 AT NODE WAIST-MIDDLE-1.157 OF CONTACT 
   PAIR (ASSEMBLY_NDE-12345-OUT_CNS_,ASSEMBLY_MEMBRANE-1_SURF-INN)
          THE CONTACT CONSTRAINTS HAVE CONVERGED.

 AVERAGE FORCE                      3.600E-02   TIME AVG. FORCE       1.558E-02
 LARGEST RESIDUAL FORCE            -2.926E-06   AT NODE        328   DOF  2
   INSTANCE: WAIST-DOWN-1                                                                    
 LARGEST INCREMENT OF DISP.        -9.287E-07   AT NODE        536   DOF  1
   INSTANCE: WAIST-DOWN-1                                                                    
 LARGEST CORRECTION TO DISP.       -2.690E-08   AT NODE        536   DOF  1
   INSTANCE: WAIST-DOWN-1                                                                    
 ESTIMATE OF DISP.    CORRECTION    6.658E-12
 FORCE     EQUILIB. ACCEPTED BASED ON SMALL RESIDUAL AND ESTIMATED CORRECTION

 AVERAGE MOMENT                     3.260E-06   TIME AVG. MOMENT      1.653E-06
 LARGEST RESIDUAL MOMENT           -1.003E-08   AT NODE        536   DOF  5
   INSTANCE: WAIST-DOWN-1                                                                    
 LARGEST INCREMENT OF ROTATION     -3.030E-02   AT NODE        557   DOF  4
   INSTANCE: WAIST-DOWN-1                                                                    
 LARGEST CORRECTION TO ROTATION    -9.788E-04   AT NODE        557   DOF  4
   INSTANCE: WAIST-DOWN-1                                                                    
          MOMENT    EQUILIBRIUM NOT ACHIEVED WITHIN TOLERANCE.

 ==> quasi-Newton: applying BFGS update  1

  USING THE DIRECT SOLVER WITH   5 PROCESSORS

     CHECK POINT   START OF SOLVER    

  NUMBER OF EQUATIONS =     34952     NUMBER OF RHS =    1
  NUMBER OF FLOATING PT. OPERATIONS =  1.97E+09

     CHECK POINT  END OF SOLVER       

       ELAPSED USER TIME (SEC)      =  0.40000    
       ELAPSED SYSTEM TIME (SEC)    =   0.0000    
       ELAPSED TOTAL CPU TIME (SEC) =  0.40000    
       ELAPSED WALLCLOCK TIME (SEC) =          0

               CONVERGENCE CHECKS FOR EQUILIBRIUM ITERATION    15

   MAX. PENETRATION ERROR -2.84591E-09 AT NODE WAIST-MIDDLE-1.370 OF CONTACT 
   PAIR (ASSEMBLY_NDE-12345-OUT_CNS_,ASSEMBLY_MEMBRANE-1_SURF-INN)
   MAX. CONTACT FORCE ERROR -56.0742E-03  AT NODE WAIST-MIDDLE-1.370 OF CONTACT 
   PAIR (ASSEMBLY_NDE-12345-OUT_CNS_,ASSEMBLY_MEMBRANE-1_SURF-INN)
          THE ESTIMATED CONTACT FORCE ERROR IS OUTSIDE OF CONVERGENCE TOLERANCES.

 AVERAGE FORCE                      3.600E-02   TIME AVG. FORCE       1.558E-02
 LARGEST RESIDUAL FORCE             2.153E-05   AT NODE        328   DOF  2
   INSTANCE: WAIST-DOWN-1                                                                    
 LARGEST INCREMENT OF DISP.        -1.242E-06   AT NODE        536   DOF  1
   INSTANCE: WAIST-DOWN-1                                                                    
 LARGEST CORRECTION TO DISP.       -3.128E-07   AT NODE        536   DOF  1
   INSTANCE: WAIST-DOWN-1                                                                    
 ESTIMATE OF DISP.    CORRECTION   -3.792E-09
 FORCE     EQUILIB. ACCEPTED BASED ON SMALL RESIDUAL AND ESTIMATED CORRECTION

 AVERAGE MOMENT                     3.260E-06   TIME AVG. MOMENT      1.653E-06
 LARGEST RESIDUAL MOMENT           -4.693E-08   AT NODE        158   DOF  6
   INSTANCE: WAIST-DOWN-1                                                                    
 LARGEST INCREMENT OF ROTATION     -4.115E-02   AT NODE        557   DOF  4
   INSTANCE: WAIST-DOWN-1                                                                    
 LARGEST CORRECTION TO ROTATION    -1.086E-02   AT NODE        557   DOF  4
   INSTANCE: WAIST-DOWN-1                                                                    
          MOMENT    EQUILIBRIUM NOT ACHIEVED WITHIN TOLERANCE.

Warning: diverging solution detected in quasi-Newton method.
Next iteration will use a new matrix decomposition


 ==> quasi-Newton: performing full factorization

  USING THE DIRECT SOLVER WITH   5 PROCESSORS

     CHECK POINT   START OF SOLVER    

  NUMBER OF EQUATIONS =     34952     NUMBER OF RHS =    1
  NUMBER OF FLOATING PT. OPERATIONS =  1.97E+09

     CHECK POINT  END OF SOLVER       

       ELAPSED USER TIME (SEC)      =  0.60000    
       ELAPSED SYSTEM TIME (SEC)    =  0.10000    
       ELAPSED TOTAL CPU TIME (SEC) =  0.70000    
       ELAPSED WALLCLOCK TIME (SEC) =          1

               CONVERGENCE CHECKS FOR EQUILIBRIUM ITERATION    16

   MAX. PENETRATION ERROR -464.734E-12   AT NODE WAIST-MIDDLE-1.157 OF CONTACT 
   PAIR (ASSEMBLY_NDE-12345-OUT_CNS_,ASSEMBLY_MEMBRANE-1_SURF-INN)
   MAX. CONTACT FORCE ERROR -9.15685E-03 AT NODE WAIST-MIDDLE-1.157 OF CONTACT 
   PAIR (ASSEMBLY_NDE-12345-OUT_CNS_,ASSEMBLY_MEMBRANE-1_SURF-INN)
          THE CONTACT CONSTRAINTS HAVE CONVERGED.

 AVERAGE FORCE                      3.600E-02   TIME AVG. FORCE       1.558E-02
 LARGEST RESIDUAL FORCE            -6.026E-06   AT NODE        328   DOF  2
   INSTANCE: WAIST-DOWN-1                                                                    
 LARGEST INCREMENT OF DISP.        -1.319E-06   AT NODE        536   DOF  1
   INSTANCE: WAIST-DOWN-1                                                                    
 LARGEST CORRECTION TO DISP.        7.781E-08   AT NODE        328   DOF  1
   INSTANCE: WAIST-DOWN-1                                                                    
 ESTIMATE OF DISP.    CORRECTION   -2.641E-10
 FORCE     EQUILIB. ACCEPTED BASED ON SMALL RESIDUAL AND ESTIMATED CORRECTION

 AVERAGE MOMENT                     3.260E-06   TIME AVG. MOMENT      1.653E-06
 LARGEST RESIDUAL MOMENT           -2.399E-08   AT NODE        328   DOF  6
   INSTANCE: WAIST-DOWN-1                                                                    
 LARGEST INCREMENT OF ROTATION     -4.320E-02   AT NODE        557   DOF  4
   INSTANCE: WAIST-DOWN-1                                                                    
 LARGEST CORRECTION TO ROTATION    -2.044E-03   AT NODE        557   DOF  4
   INSTANCE: WAIST-DOWN-1                                                                    
          MOMENT    EQUILIBRIUM NOT ACHIEVED WITHIN TOLERANCE.
 

 ***NOTE: THE SOLUTION FAILS TO CONVERGE IN THE MAXIMUM NUMBER OF EQUILIBRIUM 
          ITERATIONS ALLOWED.
 

 ***ERROR: TOO MANY ATTEMPTS MADE FOR THIS INCREMENT

 ***ERROR: THE ANALYSIS HAS BEEN TERMINATED DUE TO PREVIOUS ERRORS. ALL OUTPUT 
           REQUESTS HAVE BEEN WRITTEN FOR THE LAST CONVERGED INCREMENT.



     ANALYSIS SUMMARY:
     TOTAL OF         56  INCREMENTS
                      13  CUTBACKS IN AUTOMATIC INCREMENTATION
                     503  ITERATIONS INCLUDING CONTACT ITERATIONS IF PRESENT
                     503  PASSES THROUGH THE EQUATION SOLVER OF WHICH 
                     317  INVOLVE MATRIX DECOMPOSITION, INCLUDING
                       0  DECOMPOSITION(S) OF THE MASS MATRIX
                       1  REORDERING OF EQUATIONS TO MINIMIZE WAVEFRONT
                      32  ADDITIONAL RESIDUAL EVALUATIONS FOR LINE SEARCHES
                      39  ADDITIONAL OPERATOR EVALUATIONS FOR LINE SEARCHES
                     253  WARNING MESSAGES DURING USER INPUT PROCESSING
                      41  WARNING MESSAGES DURING ANALYSIS
                       0  ANALYSIS WARNINGS ARE NUMERICAL PROBLEM MESSAGES
                       8  ANALYSIS WARNINGS ARE NEGATIVE EIGENVALUE MESSAGES
                       2  ERROR MESSAGES



     JOB TIME SUMMARY
       USER TIME (SEC)      =   1215.4    
       SYSTEM TIME (SEC)    =   43.100    
       TOTAL CPU TIME (SEC) =   1258.5    
       WALLCLOCK TIME (SEC) =        508
