1

   Abaqus 2020                                  Date 05-May-2022   Time 05:32:04
   For use by Supplied by Team-SolidSQUAD under license from Dassault Systemes or its subsidiary.



                         The Abaqus Software is a product of:

                           Dassault Systemes SIMULIA Corp.
                           1301 Atwood Avenue, Suite 101W
                              Johnston, RI 02919, USA
 


                   The Abaqus Software is available only under license
                   from Dassault Systemes or its subsidiary and may be
                   used or reproduced only in accordance with the terms
                   of such license.
 
                          On machine DESKTOP-IV7SFF5 
                          you are authorized to run
                          Abaqus/Standard until 31-Dec-2055

                          Your site id is:  


 
                    For assistance or any other information you may
                    obtain contact information for your local office
                    from the world wide web at:

                      http://www.3ds.com/products/simulia/locations/

 
                * * * * * * * * * * * * * * * * * * * * * * * * * * * * * * 
                *                                                         * 
                *                   *****************                     * 
                *                   *  N O T I C E  *                     * 
                *                   *****************                     * 
                *                                                         * 
                *                                                         * 
                *                       Abaqus 2020                       * 
                *                                                         * 
                *          BUILD ID: 2019_09_13-18.49.31 163176           * 
                *                                                         * 
                *                                                         * 
                *  Please make sure you are using                         * 
                *  release Abaqus 2020 manuals                            * 
                *  plus the notes accompanying this release.              * 
                *                                                         * 
                *                                                         * 
                *                                                         * 
                *                                                         * 
                * * * * * * * * * * * * * * * * * * * * * * * * * * * * * * 


 



     PROCESSING PART, INSTANCE, AND ASSEMBLY INFORMATION
   *******************************************************


     END PROCESSING PART, INSTANCE, AND ASSEMBLY INFORMATION
   ***********************************************************

  *solutiontechnique, type=QUASI-NEWTON
  *solutiontechnique, type=QUASI-NEWTON



     OPTIONS BEING PROCESSED
   ***************************


  *Heading
  *Node
  *Element, type=S3

 ***NOTE: ELEMENT TYPES S3 AND S3R ARE IDENTICAL. ELEMENT TYPE S3 WILL BE 
          REFERRED TO AS S3R FROM HERE ON
  *Nset, nset=ASSEMBLY_CHEST-LEFT-1_SET-FIX
  *Elset, elset=ASSEMBLY_CHEST-LEFT-1_SET-ALL
  *Elset, elset=ASSEMBLY_CHEST-LEFT-1__SURF-INN_SNEG
  *Elset, elset=ASSEMBLY_CHEST-LEFT-1__SURF-OUT_SPOS
  *Node
  *Element, type=S3

 ***NOTE: ELEMENT TYPES S3 AND S3R ARE IDENTICAL. ELEMENT TYPE S3 WILL BE 
          REFERRED TO AS S3R FROM HERE ON
  *Nset, nset=ASSEMBLY_CHEST-RIGHT-1_SET-FIX
  *Elset, elset=ASSEMBLY_CHEST-RIGHT-1_SET-ALL
  *Elset, elset=ASSEMBLY_CHEST-RIGHT-1__SURF-INN_SNEG
  *Elset, elset=ASSEMBLY_CHEST-RIGHT-1__SURF-OUT_SPOS
  *Node
  *Element, type=S3

 ***NOTE: ELEMENT TYPES S3 AND S3R ARE IDENTICAL. ELEMENT TYPE S3 WILL BE 
          REFERRED TO AS S3R FROM HERE ON
  *Nset, nset=ASSEMBLY_MEMBRANE-1_SET-FIX
  *Elset, elset=ASSEMBLY_MEMBRANE-1_SET-ALL
  *Elset, elset=ASSEMBLY_MEMBRANE-1__SURF-INN_SNEG
  *Elset, elset=ASSEMBLY_MEMBRANE-1__SURF-OUT_SPOS
  *Node
  *Element, type=S3

 ***NOTE: ELEMENT TYPES S3 AND S3R ARE IDENTICAL. ELEMENT TYPE S3 WILL BE 
          REFERRED TO AS S3R FROM HERE ON
  *Nset, nset=ASSEMBLY_WAIST-DOWN-1_SET-FIX
  *Elset, elset=ASSEMBLY_WAIST-DOWN-1_SET-ALL
  *Elset, elset=ASSEMBLY_WAIST-DOWN-1__SURF-INN_SNEG
  *Elset, elset=ASSEMBLY_WAIST-DOWN-1__SURF-OUT_SPOS
  *Node
  *Element, type=S3

 ***NOTE: ELEMENT TYPES S3 AND S3R ARE IDENTICAL. ELEMENT TYPE S3 WILL BE 
          REFERRED TO AS S3R FROM HERE ON
  *Nset, nset=ASSEMBLY_WAIST-MIDDLE-1_SET-FIX
  *Elset, elset=ASSEMBLY_WAIST-MIDDLE-1_SET-ALL
  *Elset, elset=ASSEMBLY_WAIST-MIDDLE-1__SURF-INN_SNEG
  *Elset, elset=ASSEMBLY_WAIST-MIDDLE-1__SURF-OUT_SPOS
  *Node
  *Element, type=S3

 ***NOTE: ELEMENT TYPES S3 AND S3R ARE IDENTICAL. ELEMENT TYPE S3 WILL BE 
          REFERRED TO AS S3R FROM HERE ON
  *Nset, nset=ASSEMBLY_WAIST-UP-1_SET-FIX
  *Elset, elset=ASSEMBLY_WAIST-UP-1_SET-ALL
  *Elset, elset=ASSEMBLY_WAIST-UP-1__SURF-INN_SNEG
  *Elset, elset=ASSEMBLY_WAIST-UP-1__SURF-OUT_SPOS
  *Nset, nset=ASSEMBLY_NDE-12345-OUT
  *Nset, nset=ASSEMBLY_NDE-35-OUT
  *Nset, nset=ASSEMBLY_SET-20
  *Nset, nset=ASSEMBLY_SET-21
  *Nset, nset=ASSEMBLY_SET-22
  *Nset, nset=ASSEMBLY_SET-FIX
  *Elset, elset=ASSEMBLY__SURF-12-OUT_SPOS
  *Elset, elset=ASSEMBLY__SURF-12345-OUT_SPOS
  *Elset, elset=ASSEMBLY__SURF-35-OUT_SPOS
  *material, name=DRAGONSKIN20-OGDEN
  *hyperelastic, n=3, ogden
  *material, name=ECOFLEX0030-OGDEN
  *hyperelastic, n=3, ogden
  *material, name=SILICON
  *density
  *hyperelastic, mooney-rivlin
  *shellsection, elset=ASSEMBLY_CHEST-LEFT-1_SET-ALL, material=DRAGONSKIN20-OGDEN
  *shellsection, elset=ASSEMBLY_CHEST-RIGHT-1_SET-ALL, material=DRAGONSKIN20-OGDEN
  *shellsection, elset=ASSEMBLY_MEMBRANE-1_SET-ALL, material=ECOFLEX0030-OGDEN
  *shellsection, elset=ASSEMBLY_WAIST-DOWN-1_SET-ALL, material=DRAGONSKIN20-OGDEN
  *shellsection, elset=ASSEMBLY_WAIST-MIDDLE-1_SET-ALL, material=DRAGONSKIN20-OGDEN
  *shellsection, elset=ASSEMBLY_WAIST-UP-1_SET-ALL, material=DRAGONSKIN20-OGDEN
  *shellsection, elset=ASSEMBLY_CHEST-LEFT-1_SET-ALL, material=DRAGONSKIN20-OGDEN
  *shellsection, elset=ASSEMBLY_CHEST-RIGHT-1_SET-ALL, material=DRAGONSKIN20-OGDEN
  *shellsection, elset=ASSEMBLY_MEMBRANE-1_SET-ALL, material=ECOFLEX0030-OGDEN
  *shellsection, elset=ASSEMBLY_WAIST-DOWN-1_SET-ALL, material=DRAGONSKIN20-OGDEN
  *shellsection, elset=ASSEMBLY_WAIST-MIDDLE-1_SET-ALL, material=DRAGONSKIN20-OGDEN
  *shellsection, elset=ASSEMBLY_WAIST-UP-1_SET-ALL, material=DRAGONSKIN20-OGDEN
  *contactpair, interaction=INTPROP-2, type=SURFACETOSURFACE
  *contactpair, interaction=INTPROP-2, type=SURFACETOSURFACE
  *tie, name=ASSEMBLY_CONSTRAINT-TIE, positiontolerance=0.01, adjust=YES
  *surface, type=ELEMENT, name=ASSEMBLY_CHEST-LEFT-1_SURF-OUT
  *surface, type=ELEMENT, name=ASSEMBLY_CHEST-LEFT-1_SURF-INN
  *surface, type=ELEMENT, name=ASSEMBLY_CHEST-RIGHT-1_SURF-INN
  *surface, type=ELEMENT, name=ASSEMBLY_CHEST-RIGHT-1_SURF-OUT
  *surface, type=ELEMENT, name=ASSEMBLY_MEMBRANE-1_SURF-INN
  *surface, type=ELEMENT, name=ASSEMBLY_MEMBRANE-1_SURF-OUT
  *surface, type=ELEMENT, name=ASSEMBLY_WAIST-DOWN-1_SURF-OUT
  *surface, type=ELEMENT, name=ASSEMBLY_WAIST-DOWN-1_SURF-INN
  *surface, type=ELEMENT, name=ASSEMBLY_WAIST-MIDDLE-1_SURF-OUT
  *surface, type=ELEMENT, name=ASSEMBLY_WAIST-MIDDLE-1_SURF-INN
  *surface, type=ELEMENT, name=ASSEMBLY_WAIST-UP-1_SURF-OUT
  *surface, type=ELEMENT, name=ASSEMBLY_WAIST-UP-1_SURF-INN
  *surface, type=ELEMENT, name=ASSEMBLY_SURF-12-OUT
  *surface, type=ELEMENT, name=ASSEMBLY_SURF-35-OUT
  *surface, type=ELEMENT, name=ASSEMBLY_SURF-12345-OUT
  *surface, type=NODE, name=ASSEMBLY_NDE-35-OUT_CNS_
  *surface, type=NODE, name=ASSEMBLY_NDE-12345-OUT_CNS_
  *surface, type=NODE, name=ASSEMBLY_WAIST-MIDDLE-1_SET-FIX_CNS_
  *contactpair, interaction=INTPROP-2, type=SURFACETOSURFACE
  *contactpair, interaction=INTPROP-2, type=SURFACETOSURFACE
  *tie, name=ASSEMBLY_CONSTRAINT-TIE, positiontolerance=0.01, adjust=YES
  *surface, type=ELEMENT, name=ASSEMBLY_CHEST-LEFT-1_SURF-OUT
  *surface, type=ELEMENT, name=ASSEMBLY_CHEST-LEFT-1_SURF-INN
  *surface, type=ELEMENT, name=ASSEMBLY_CHEST-RIGHT-1_SURF-INN
  *surface, type=ELEMENT, name=ASSEMBLY_CHEST-RIGHT-1_SURF-OUT
  *surface, type=ELEMENT, name=ASSEMBLY_MEMBRANE-1_SURF-INN
  *surface, type=ELEMENT, name=ASSEMBLY_MEMBRANE-1_SURF-OUT
  *surface, type=ELEMENT, name=ASSEMBLY_WAIST-DOWN-1_SURF-OUT
  *surface, type=ELEMENT, name=ASSEMBLY_WAIST-DOWN-1_SURF-INN
  *surface, type=ELEMENT, name=ASSEMBLY_WAIST-MIDDLE-1_SURF-OUT
  *surface, type=ELEMENT, name=ASSEMBLY_WAIST-MIDDLE-1_SURF-INN
  *surface, type=ELEMENT, name=ASSEMBLY_WAIST-UP-1_SURF-OUT
  *surface, type=ELEMENT, name=ASSEMBLY_WAIST-UP-1_SURF-INN
  *surface, type=ELEMENT, name=ASSEMBLY_SURF-12-OUT
  *surface, type=ELEMENT, name=ASSEMBLY_SURF-35-OUT

 ***NOTE: DUE TO EXCESSIVE REPORTING, THE ECHO OF THE *SURFACE OPTION IS BEING 
          SUPPRESSED.
  *contactpair, interaction=INTPROP-2, type=SURFACETOSURFACE

 ***NOTE: THE ROTATIONAL DEGREES OF FREEDOM OF THE NODES THAT CONSTITUTE THE 
          SURFACES WILL NOT BE CONSTRAINED BETWEEN THE SLAVE AND MASTER PAIR 
          (ASSEMBLY_NDE-35-OUT_CNS_, ASSEMBLY_WAIST-MIDDLE-1_SURF-INN).

 ***NOTE: ROTATIONAL DEGREES OF FREEDOM WILL NOT BE CONSTRAINED BETWEEN THE 
          SLAVE AND MASTER PAIR (ASSEMBLY_NDE-35-OUT_CNS_, 
          ASSEMBLY_WAIST-MIDDLE-1_SURF-INN).
  *contactpair, interaction=INTPROP-2, type=SURFACETOSURFACE

 ***NOTE: THE ROTATIONAL DEGREES OF FREEDOM OF THE NODES THAT CONSTITUTE THE 
          SURFACES WILL NOT BE CONSTRAINED BETWEEN THE SLAVE AND MASTER PAIR 
          (ASSEMBLY_NDE-12345-OUT_CNS_, ASSEMBLY_MEMBRANE-1_SURF-INN).

 ***NOTE: ROTATIONAL DEGREES OF FREEDOM WILL NOT BE CONSTRAINED BETWEEN THE 
          SLAVE AND MASTER PAIR (ASSEMBLY_NDE-12345-OUT_CNS_, 
          ASSEMBLY_MEMBRANE-1_SURF-INN).
  *surfaceinteraction, name=INTPROP-1
  *surfacebehavior, noseparation, pressure-overclosure=HARD
  *surfaceinteraction, name=INTPROP-2
  *contactpair, interaction=INTPROP-2, type=SURFACETOSURFACE

 ***NOTE: THE ROTATIONAL DEGREES OF FREEDOM OF THE NODES THAT CONSTITUTE THE 
          SURFACES WILL NOT BE CONSTRAINED BETWEEN THE SLAVE AND MASTER PAIR 
          (ASSEMBLY_NDE-35-OUT_CNS_, ASSEMBLY_WAIST-MIDDLE-1_SURF-INN).

 ***NOTE: ROTATIONAL DEGREES OF FREEDOM WILL NOT BE CONSTRAINED BETWEEN THE 
          SLAVE AND MASTER PAIR (ASSEMBLY_NDE-35-OUT_CNS_, 
          ASSEMBLY_WAIST-MIDDLE-1_SURF-INN).
  *contactpair, interaction=INTPROP-2, type=SURFACETOSURFACE

 ***NOTE: THE ROTATIONAL DEGREES OF FREEDOM OF THE NODES THAT CONSTITUTE THE 
          SURFACES WILL NOT BE CONSTRAINED BETWEEN THE SLAVE AND MASTER PAIR 
          (ASSEMBLY_NDE-12345-OUT_CNS_, ASSEMBLY_MEMBRANE-1_SURF-INN).

 ***NOTE: ROTATIONAL DEGREES OF FREEDOM WILL NOT BE CONSTRAINED BETWEEN THE 
          SLAVE AND MASTER PAIR (ASSEMBLY_NDE-12345-OUT_CNS_, 
          ASSEMBLY_MEMBRANE-1_SURF-INN).
  *contactpair, interaction=INTPROP-2, type=SURFACETOSURFACE

 ***NOTE: THE ROTATIONAL DEGREES OF FREEDOM OF THE NODES THAT CONSTITUTE THE 
          SURFACES WILL NOT BE CONSTRAINED BETWEEN THE SLAVE AND MASTER PAIR 
          (ASSEMBLY_NDE-35-OUT_CNS_, ASSEMBLY_WAIST-MIDDLE-1_SURF-INN).

 ***NOTE: ROTATIONAL DEGREES OF FREEDOM WILL NOT BE CONSTRAINED BETWEEN THE 
          SLAVE AND MASTER PAIR (ASSEMBLY_NDE-35-OUT_CNS_, 
          ASSEMBLY_WAIST-MIDDLE-1_SURF-INN).
  *contactpair, interaction=INTPROP-2, type=SURFACETOSURFACE

 ***NOTE: THE ROTATIONAL DEGREES OF FREEDOM OF THE NODES THAT CONSTITUTE THE 
          SURFACES WILL NOT BE CONSTRAINED BETWEEN THE SLAVE AND MASTER PAIR 
          (ASSEMBLY_NDE-12345-OUT_CNS_, ASSEMBLY_MEMBRANE-1_SURF-INN).

 ***NOTE: ROTATIONAL DEGREES OF FREEDOM WILL NOT BE CONSTRAINED BETWEEN THE 
          SLAVE AND MASTER PAIR (ASSEMBLY_NDE-12345-OUT_CNS_, 
          ASSEMBLY_MEMBRANE-1_SURF-INN).
  *tie, name=ASSEMBLY_CONSTRAINT-TIE, positiontolerance=0.01, adjust=YES
  *tie, name=ASSEMBLY_CONSTRAINT-TIE, positiontolerance=0.01, adjust=YES
  *surfaceinteraction, name=INTPROP-1
  *surfaceinteraction, name=INTPROP-2
  *friction
  *surfaceinteraction, name=INTPROP-1
  *surfaceinteraction, name=INTPROP-2
  *boundary
  *boundary
  *tie, name=ASSEMBLY_CONSTRAINT-TIE, positiontolerance=0.01, adjust=YES

 ***WARNING: SLAVE SURFACE ASSEMBLY_WAIST-MIDDLE-1_SET-FIX_CNS_ IS A NODE-BASED 
             SURFACE USED WITH SURFACE TO SURFACE APPROACH.  IN ORDER TO OBTAIN 
             IMPROVED STRESS ACCURACY WITH THIS APPROACH, AN ELEMENT-BASED 
             SURFACE SHOULD BE USED INSTEAD.


  SLAVE : ASSEMBLY_WAIST-MIDDLE-1_SET-FIX_CNS_                                            
  MASTER: ASSEMBLY_SURF-35-OUT                                                            
              DISTANCE
   NODE       ADJUSTED    REMARKS/WARNINGS

      4470   1.52883E-03  ADJUSTED TO ( 0.10645    ,  1.0631    , 5.62346E-02).
      4486   1.59809E-03  ADJUSTED TO ( 5.58611E-02, 0.94093    , 8.77018E-02).
      4488   1.54988E-03  ADJUSTED TO ( 0.14747    , 0.94076    , 1.86155E-02).
      4489   1.56615E-03  ADJUSTED TO ( 0.11470    , 0.94089    , 5.63586E-02).
      4490   1.49954E-03  ADJUSTED TO ( 4.12589E-02, 0.94092    , 9.13884E-02).
      4492   1.50260E-03  ADJUSTED TO ( 2.85088E-02, 0.94091    , 9.37859E-02).
      4493   1.61629E-03  ADJUSTED TO (-5.24607E-03, 0.94092    , 9.56292E-02).
      4496   1.68798E-03  ADJUSTED TO (-3.18284E-02,  1.0631    , 8.81788E-02).
      4497   1.61088E-03  ADJUSTED TO (-9.60278E-03,  1.0631    , 9.18304E-02).
      4498   1.61175E-03  ADJUSTED TO (-6.04957E-04,  1.0630    , 9.18613E-02).
      4500   1.57237E-03  ADJUSTED TO ( 8.58808E-02,  1.0632    , 7.18635E-02).
      4501   1.57891E-03  ADJUSTED TO ( 0.13397    ,  1.0631    , 2.20334E-02).
      4511   1.50910E-03  ADJUSTED TO (-0.10980    ,  1.0630    , 1.69537E-02).
      4519   1.54880E-03  ADJUSTED TO (-0.12555    , 0.97007    , 5.35750E-03).
      4526   1.57006E-03  ADJUSTED TO ( 0.15071    , 0.94073    , 1.14102E-02).
      4527   1.49551E-03  ADJUSTED TO (-4.86874E-02,  1.0631    , 8.17425E-02).
      4528   1.56831E-03  ADJUSTED TO ( 9.30332E-02,  1.0632    , 6.71699E-02).
      4529   1.50441E-03  ADJUSTED TO ( 0.14796    , 0.98443    , 6.47839E-03).
      4530   1.55942E-03  ADJUSTED TO (-7.44349E-02,  1.0630    , 6.56554E-02).
      4531   1.52637E-03  ADJUSTED TO ( 6.61050E-02,  1.0631    , 8.11871E-02).




 ***WARNING: FOR *TIE PAIR 
             (ASSEMBLY_WAIST-MIDDLE-1_SET-FIX_CNS_-ASSEMBLY_SURF-35-OUT), NOT 
             ALL THE NODES THAT HAVE BEEN ADJUSTED WERE PRINTED. SPECIFY 
             *PREPRINT,MODEL=YES FOR COMPLETE PRINTOUT.
  *contactpair, interaction=INTPROP-2, type=SURFACETOSURFACE

 ***NOTE: THE ROTATIONAL DEGREES OF FREEDOM OF THE NODES THAT CONSTITUTE THE 
          SURFACES WILL NOT BE CONSTRAINED BETWEEN THE SLAVE AND MASTER PAIR 
          (ASSEMBLY_NDE-35-OUT_CNS_, ASSEMBLY_WAIST-MIDDLE-1_SURF-INN).

 ***NOTE: ROTATIONAL DEGREES OF FREEDOM WILL NOT BE CONSTRAINED BETWEEN THE 
          SLAVE AND MASTER PAIR (ASSEMBLY_NDE-35-OUT_CNS_, 
          ASSEMBLY_WAIST-MIDDLE-1_SURF-INN).

 ***WARNING: SLAVE SURFACE ASSEMBLY_NDE-35-OUT_CNS_ IS A NODE-BASED SURFACE 
             USED WITH SURFACE TO SURFACE APPROACH.  IN ORDER TO OBTAIN 
             IMPROVED STRESS ACCURACY WITH THIS APPROACH, AN ELEMENT-BASED 
             SURFACE SHOULD BE USED INSTEAD.

 ***WARNING: 121 nodes have been adjusted. The nodes have been identified in 
             node set WarnNodeAdjust.

 ***WARNING: NODE 72 INSTANCE WAIST-MIDDLE-1 ON SURFACE 
             ASSEMBLY_WAIST-MIDDLE-1_SURF-INN HAS FACETS WITH NORMAL VECTORS 
             DIFFERING BY MORE THAN 30 DEGREES. CONVERGENCE DIFFICULTIES MAY 
             OCCUR AT THIS NODE WITH FINITE-SLIDING CONTACT. THE NORMAL CONTACT 
             DIRECTION AT THIS NODE WILL BE (-0.39455,-0.34625,0.85114).

 ***WARNING: NODE 255 INSTANCE WAIST-MIDDLE-1 ON SURFACE 
             ASSEMBLY_WAIST-MIDDLE-1_SURF-INN HAS FACETS WITH NORMAL VECTORS 
             DIFFERING BY MORE THAN 30 DEGREES. CONVERGENCE DIFFICULTIES MAY 
             OCCUR AT THIS NODE WITH FINITE-SLIDING CONTACT. THE NORMAL CONTACT 
             DIRECTION AT THIS NODE WILL BE (-0.99059,-8.72993E-02,0.10536).

 ***WARNING: NODE 336 INSTANCE WAIST-MIDDLE-1 ON SURFACE 
             ASSEMBLY_WAIST-MIDDLE-1_SURF-INN HAS FACETS WITH NORMAL VECTORS 
             DIFFERING BY MORE THAN 30 DEGREES. CONVERGENCE DIFFICULTIES MAY 
             OCCUR AT THIS NODE WITH FINITE-SLIDING CONTACT. THE NORMAL CONTACT 
             DIRECTION AT THIS NODE WILL BE (-0.96347,-0.25847,7.01284E-02).

 ***WARNING: NODE 542 INSTANCE WAIST-MIDDLE-1 ON SURFACE 
             ASSEMBLY_WAIST-MIDDLE-1_SURF-INN HAS FACETS WITH NORMAL VECTORS 
             DIFFERING BY MORE THAN 30 DEGREES. CONVERGENCE DIFFICULTIES MAY 
             OCCUR AT THIS NODE WITH FINITE-SLIDING CONTACT. THE NORMAL CONTACT 
             DIRECTION AT THIS NODE WILL BE (-0.90227,-0.36885,0.22327).
  *contactpair, interaction=INTPROP-2, type=SURFACETOSURFACE

 ***NOTE: THE ROTATIONAL DEGREES OF FREEDOM OF THE NODES THAT CONSTITUTE THE 
          SURFACES WILL NOT BE CONSTRAINED BETWEEN THE SLAVE AND MASTER PAIR 
          (ASSEMBLY_NDE-12345-OUT_CNS_, ASSEMBLY_MEMBRANE-1_SURF-INN).

 ***NOTE: ROTATIONAL DEGREES OF FREEDOM WILL NOT BE CONSTRAINED BETWEEN THE 
          SLAVE AND MASTER PAIR (ASSEMBLY_NDE-12345-OUT_CNS_, 
          ASSEMBLY_MEMBRANE-1_SURF-INN).

 ***WARNING: SLAVE SURFACE ASSEMBLY_NDE-12345-OUT_CNS_ IS A NODE-BASED SURFACE 
             USED WITH SURFACE TO SURFACE APPROACH.  IN ORDER TO OBTAIN 
             IMPROVED STRESS ACCURACY WITH THIS APPROACH, AN ELEMENT-BASED 
             SURFACE SHOULD BE USED INSTEAD.

 ***WARNING: 4 nodes may have incorrect normal definitions. The nodes have been 
             identified in node set WarnNodeIncorrectNormal.
  *tie, name=ASSEMBLY_CONSTRAINT-TIE, positiontolerance=0.01, adjust=YES
  *tie, name=ASSEMBLY_CONSTRAINT-TIE, positiontolerance=0.01, adjust=YES

 ***WARNING: THE *CONTACT PAIR SLAVE SURFACE ASSEMBLY_NDE-12345-OUT_CNS_ AND 
             THE *TIE SLAVE SURFACE ASSEMBLY_WAIST-MIDDLE-1_SET-FIX_CNS_ 
             INTERSECT EACH OTHER AT NODE 4 INSTANCE WAIST-MIDDLE-1. THE TWO 
             PAIRS WITH MENTIONED SLAVE SURFACES SHOULD NOT BE SIMULTANEOUSLY 
             PRESENT IN A STEP BECAUSE OF POSSIBLE CONVERGENCE PROBLEMS. IF ALL 
             SUCH NODES ARE IN CONTACT DURING THE ANALYSIS, OVERCONSTRAINTS 
             WILL OCCUR. USE *MODEL CHANGE, TYPE=CONTACT TO REMOVE THE *CONTACT 
             PAIR DURING THE STEP OR REMOVE IT FROM MODEL DATA.

 ***WARNING: THE *CONTACT PAIR SLAVE SURFACE ASSEMBLY_NDE-12345-OUT_CNS_ AND 
             THE *TIE SLAVE SURFACE ASSEMBLY_WAIST-MIDDLE-1_SET-FIX_CNS_ 
             INTERSECT EACH OTHER AT NODE 4 INSTANCE WAIST-MIDDLE-1. THE TWO 
             PAIRS WITH MENTIONED SLAVE SURFACES SHOULD NOT BE SIMULTANEOUSLY 
             PRESENT IN A STEP BECAUSE OF POSSIBLE CONVERGENCE PROBLEMS. IF ALL 
             SUCH NODES ARE IN CONTACT DURING THE ANALYSIS, OVERCONSTRAINTS 
             WILL OCCUR. USE *MODEL CHANGE, TYPE=CONTACT TO REMOVE THE *CONTACT 
             PAIR DURING THE STEP OR REMOVE IT FROM MODEL DATA.

 ***WARNING: THE *CONTACT PAIR SLAVE SURFACE ASSEMBLY_NDE-12345-OUT_CNS_ AND 
             THE *TIE SLAVE SURFACE ASSEMBLY_WAIST-MIDDLE-1_SET-FIX_CNS_ 
             INTERSECT EACH OTHER AT NODE 20 INSTANCE WAIST-MIDDLE-1. THE TWO 
             PAIRS WITH MENTIONED SLAVE SURFACES SHOULD NOT BE SIMULTANEOUSLY 
             PRESENT IN A STEP BECAUSE OF POSSIBLE CONVERGENCE PROBLEMS. IF ALL 
             SUCH NODES ARE IN CONTACT DURING THE ANALYSIS, OVERCONSTRAINTS 
             WILL OCCUR. USE *MODEL CHANGE, TYPE=CONTACT TO REMOVE THE *CONTACT 
             PAIR DURING THE STEP OR REMOVE IT FROM MODEL DATA.

 ***WARNING: THE *CONTACT PAIR SLAVE SURFACE ASSEMBLY_NDE-12345-OUT_CNS_ AND 
             THE *TIE SLAVE SURFACE ASSEMBLY_WAIST-MIDDLE-1_SET-FIX_CNS_ 
             INTERSECT EACH OTHER AT NODE 20 INSTANCE WAIST-MIDDLE-1. THE TWO 
             PAIRS WITH MENTIONED SLAVE SURFACES SHOULD NOT BE SIMULTANEOUSLY 
             PRESENT IN A STEP BECAUSE OF POSSIBLE CONVERGENCE PROBLEMS. IF ALL 
             SUCH NODES ARE IN CONTACT DURING THE ANALYSIS, OVERCONSTRAINTS 
             WILL OCCUR. USE *MODEL CHANGE, TYPE=CONTACT TO REMOVE THE *CONTACT 
             PAIR DURING THE STEP OR REMOVE IT FROM MODEL DATA.

 ***WARNING: THE *CONTACT PAIR SLAVE SURFACE ASSEMBLY_NDE-12345-OUT_CNS_ AND 
             THE *TIE SLAVE SURFACE ASSEMBLY_WAIST-MIDDLE-1_SET-FIX_CNS_ 
             INTERSECT EACH OTHER AT NODE 22 INSTANCE WAIST-MIDDLE-1. THE TWO 
             PAIRS WITH MENTIONED SLAVE SURFACES SHOULD NOT BE SIMULTANEOUSLY 
             PRESENT IN A STEP BECAUSE OF POSSIBLE CONVERGENCE PROBLEMS. IF ALL 
             SUCH NODES ARE IN CONTACT DURING THE ANALYSIS, OVERCONSTRAINTS 
             WILL OCCUR. USE *MODEL CHANGE, TYPE=CONTACT TO REMOVE THE *CONTACT 
             PAIR DURING THE STEP OR REMOVE IT FROM MODEL DATA.

 ***WARNING: THE *CONTACT PAIR SLAVE SURFACE ASSEMBLY_NDE-12345-OUT_CNS_ AND 
             THE *TIE SLAVE SURFACE ASSEMBLY_WAIST-MIDDLE-1_SET-FIX_CNS_ 
             INTERSECT EACH OTHER AT NODE 22 INSTANCE WAIST-MIDDLE-1. THE TWO 
             PAIRS WITH MENTIONED SLAVE SURFACES SHOULD NOT BE SIMULTANEOUSLY 
             PRESENT IN A STEP BECAUSE OF POSSIBLE CONVERGENCE PROBLEMS. IF ALL 
             SUCH NODES ARE IN CONTACT DURING THE ANALYSIS, OVERCONSTRAINTS 
             WILL OCCUR. USE *MODEL CHANGE, TYPE=CONTACT TO REMOVE THE *CONTACT 
             PAIR DURING THE STEP OR REMOVE IT FROM MODEL DATA.

 ***WARNING: THE *CONTACT PAIR SLAVE SURFACE ASSEMBLY_NDE-12345-OUT_CNS_ AND 
             THE *TIE SLAVE SURFACE ASSEMBLY_WAIST-MIDDLE-1_SET-FIX_CNS_ 
             INTERSECT EACH OTHER AT NODE 23 INSTANCE WAIST-MIDDLE-1. THE TWO 
             PAIRS WITH MENTIONED SLAVE SURFACES SHOULD NOT BE SIMULTANEOUSLY 
             PRESENT IN A STEP BECAUSE OF POSSIBLE CONVERGENCE PROBLEMS. IF ALL 
             SUCH NODES ARE IN CONTACT DURING THE ANALYSIS, OVERCONSTRAINTS 
             WILL OCCUR. USE *MODEL CHANGE, TYPE=CONTACT TO REMOVE THE *CONTACT 
             PAIR DURING THE STEP OR REMOVE IT FROM MODEL DATA.

 ***WARNING: THE *CONTACT PAIR SLAVE SURFACE ASSEMBLY_NDE-12345-OUT_CNS_ AND 
             THE *TIE SLAVE SURFACE ASSEMBLY_WAIST-MIDDLE-1_SET-FIX_CNS_ 
             INTERSECT EACH OTHER AT NODE 23 INSTANCE WAIST-MIDDLE-1. THE TWO 
             PAIRS WITH MENTIONED SLAVE SURFACES SHOULD NOT BE SIMULTANEOUSLY 
             PRESENT IN A STEP BECAUSE OF POSSIBLE CONVERGENCE PROBLEMS. IF ALL 
             SUCH NODES ARE IN CONTACT DURING THE ANALYSIS, OVERCONSTRAINTS 
             WILL OCCUR. USE *MODEL CHANGE, TYPE=CONTACT TO REMOVE THE *CONTACT 
             PAIR DURING THE STEP OR REMOVE IT FROM MODEL DATA.

 ***WARNING: THE *CONTACT PAIR SLAVE SURFACE ASSEMBLY_NDE-12345-OUT_CNS_ AND 
             THE *TIE SLAVE SURFACE ASSEMBLY_WAIST-MIDDLE-1_SET-FIX_CNS_ 
             INTERSECT EACH OTHER AT NODE 24 INSTANCE WAIST-MIDDLE-1. THE TWO 
             PAIRS WITH MENTIONED SLAVE SURFACES SHOULD NOT BE SIMULTANEOUSLY 
             PRESENT IN A STEP BECAUSE OF POSSIBLE CONVERGENCE PROBLEMS. IF ALL 
             SUCH NODES ARE IN CONTACT DURING THE ANALYSIS, OVERCONSTRAINTS 
             WILL OCCUR. USE *MODEL CHANGE, TYPE=CONTACT TO REMOVE THE *CONTACT 
             PAIR DURING THE STEP OR REMOVE IT FROM MODEL DATA.

 ***WARNING: THE *CONTACT PAIR SLAVE SURFACE ASSEMBLY_NDE-12345-OUT_CNS_ AND 
             THE *TIE SLAVE SURFACE ASSEMBLY_WAIST-MIDDLE-1_SET-FIX_CNS_ 
             INTERSECT EACH OTHER AT NODE 24 INSTANCE WAIST-MIDDLE-1. THE TWO 
             PAIRS WITH MENTIONED SLAVE SURFACES SHOULD NOT BE SIMULTANEOUSLY 
             PRESENT IN A STEP BECAUSE OF POSSIBLE CONVERGENCE PROBLEMS. IF ALL 
             SUCH NODES ARE IN CONTACT DURING THE ANALYSIS, OVERCONSTRAINTS 
             WILL OCCUR. USE *MODEL CHANGE, TYPE=CONTACT TO REMOVE THE *CONTACT 
             PAIR DURING THE STEP OR REMOVE IT FROM MODEL DATA.

 ***WARNING: THE *CONTACT PAIR SLAVE SURFACE ASSEMBLY_NDE-12345-OUT_CNS_ AND 
             THE *TIE SLAVE SURFACE ASSEMBLY_WAIST-MIDDLE-1_SET-FIX_CNS_ 
             INTERSECT EACH OTHER AT NODE 26 INSTANCE WAIST-MIDDLE-1. THE TWO 
             PAIRS WITH MENTIONED SLAVE SURFACES SHOULD NOT BE SIMULTANEOUSLY 
             PRESENT IN A STEP BECAUSE OF POSSIBLE CONVERGENCE PROBLEMS. IF ALL 
             SUCH NODES ARE IN CONTACT DURING THE ANALYSIS, OVERCONSTRAINTS 
             WILL OCCUR. USE *MODEL CHANGE, TYPE=CONTACT TO REMOVE THE *CONTACT 
             PAIR DURING THE STEP OR REMOVE IT FROM MODEL DATA.

 ***WARNING: THE *CONTACT PAIR SLAVE SURFACE ASSEMBLY_NDE-12345-OUT_CNS_ AND 
             THE *TIE SLAVE SURFACE ASSEMBLY_WAIST-MIDDLE-1_SET-FIX_CNS_ 
             INTERSECT EACH OTHER AT NODE 26 INSTANCE WAIST-MIDDLE-1. THE TWO 
             PAIRS WITH MENTIONED SLAVE SURFACES SHOULD NOT BE SIMULTANEOUSLY 
             PRESENT IN A STEP BECAUSE OF POSSIBLE CONVERGENCE PROBLEMS. IF ALL 
             SUCH NODES ARE IN CONTACT DURING THE ANALYSIS, OVERCONSTRAINTS 
             WILL OCCUR. USE *MODEL CHANGE, TYPE=CONTACT TO REMOVE THE *CONTACT 
             PAIR DURING THE STEP OR REMOVE IT FROM MODEL DATA.

 ***WARNING: THE *CONTACT PAIR SLAVE SURFACE ASSEMBLY_NDE-12345-OUT_CNS_ AND 
             THE *TIE SLAVE SURFACE ASSEMBLY_WAIST-MIDDLE-1_SET-FIX_CNS_ 
             INTERSECT EACH OTHER AT NODE 27 INSTANCE WAIST-MIDDLE-1. THE TWO 
             PAIRS WITH MENTIONED SLAVE SURFACES SHOULD NOT BE SIMULTANEOUSLY 
             PRESENT IN A STEP BECAUSE OF POSSIBLE CONVERGENCE PROBLEMS. IF ALL 
             SUCH NODES ARE IN CONTACT DURING THE ANALYSIS, OVERCONSTRAINTS 
             WILL OCCUR. USE *MODEL CHANGE, TYPE=CONTACT TO REMOVE THE *CONTACT 
             PAIR DURING THE STEP OR REMOVE IT FROM MODEL DATA.

 ***WARNING: THE *CONTACT PAIR SLAVE SURFACE ASSEMBLY_NDE-12345-OUT_CNS_ AND 
             THE *TIE SLAVE SURFACE ASSEMBLY_WAIST-MIDDLE-1_SET-FIX_CNS_ 
             INTERSECT EACH OTHER AT NODE 27 INSTANCE WAIST-MIDDLE-1. THE TWO 
             PAIRS WITH MENTIONED SLAVE SURFACES SHOULD NOT BE SIMULTANEOUSLY 
             PRESENT IN A STEP BECAUSE OF POSSIBLE CONVERGENCE PROBLEMS. IF ALL 
             SUCH NODES ARE IN CONTACT DURING THE ANALYSIS, OVERCONSTRAINTS 
             WILL OCCUR. USE *MODEL CHANGE, TYPE=CONTACT TO REMOVE THE *CONTACT 
             PAIR DURING THE STEP OR REMOVE IT FROM MODEL DATA.

 ***WARNING: THE *CONTACT PAIR SLAVE SURFACE ASSEMBLY_NDE-12345-OUT_CNS_ AND 
             THE *TIE SLAVE SURFACE ASSEMBLY_WAIST-MIDDLE-1_SET-FIX_CNS_ 
             INTERSECT EACH OTHER AT NODE 30 INSTANCE WAIST-MIDDLE-1. THE TWO 
             PAIRS WITH MENTIONED SLAVE SURFACES SHOULD NOT BE SIMULTANEOUSLY 
             PRESENT IN A STEP BECAUSE OF POSSIBLE CONVERGENCE PROBLEMS. IF ALL 
             SUCH NODES ARE IN CONTACT DURING THE ANALYSIS, OVERCONSTRAINTS 
             WILL OCCUR. USE *MODEL CHANGE, TYPE=CONTACT TO REMOVE THE *CONTACT 
             PAIR DURING THE STEP OR REMOVE IT FROM MODEL DATA.

 ***WARNING: THE *CONTACT PAIR SLAVE SURFACE ASSEMBLY_NDE-12345-OUT_CNS_ AND 
             THE *TIE SLAVE SURFACE ASSEMBLY_WAIST-MIDDLE-1_SET-FIX_CNS_ 
             INTERSECT EACH OTHER AT NODE 30 INSTANCE WAIST-MIDDLE-1. THE TWO 
             PAIRS WITH MENTIONED SLAVE SURFACES SHOULD NOT BE SIMULTANEOUSLY 
             PRESENT IN A STEP BECAUSE OF POSSIBLE CONVERGENCE PROBLEMS. IF ALL 
             SUCH NODES ARE IN CONTACT DURING THE ANALYSIS, OVERCONSTRAINTS 
             WILL OCCUR. USE *MODEL CHANGE, TYPE=CONTACT TO REMOVE THE *CONTACT 
             PAIR DURING THE STEP OR REMOVE IT FROM MODEL DATA.

 ***WARNING: THE *CONTACT PAIR SLAVE SURFACE ASSEMBLY_NDE-12345-OUT_CNS_ AND 
             THE *TIE SLAVE SURFACE ASSEMBLY_WAIST-MIDDLE-1_SET-FIX_CNS_ 
             INTERSECT EACH OTHER AT NODE 31 INSTANCE WAIST-MIDDLE-1. THE TWO 
             PAIRS WITH MENTIONED SLAVE SURFACES SHOULD NOT BE SIMULTANEOUSLY 
             PRESENT IN A STEP BECAUSE OF POSSIBLE CONVERGENCE PROBLEMS. IF ALL 
             SUCH NODES ARE IN CONTACT DURING THE ANALYSIS, OVERCONSTRAINTS 
             WILL OCCUR. USE *MODEL CHANGE, TYPE=CONTACT TO REMOVE THE *CONTACT 
             PAIR DURING THE STEP OR REMOVE IT FROM MODEL DATA.

 ***WARNING: THE *CONTACT PAIR SLAVE SURFACE ASSEMBLY_NDE-12345-OUT_CNS_ AND 
             THE *TIE SLAVE SURFACE ASSEMBLY_WAIST-MIDDLE-1_SET-FIX_CNS_ 
             INTERSECT EACH OTHER AT NODE 31 INSTANCE WAIST-MIDDLE-1. THE TWO 
             PAIRS WITH MENTIONED SLAVE SURFACES SHOULD NOT BE SIMULTANEOUSLY 
             PRESENT IN A STEP BECAUSE OF POSSIBLE CONVERGENCE PROBLEMS. IF ALL 
             SUCH NODES ARE IN CONTACT DURING THE ANALYSIS, OVERCONSTRAINTS 
             WILL OCCUR. USE *MODEL CHANGE, TYPE=CONTACT TO REMOVE THE *CONTACT 
             PAIR DURING THE STEP OR REMOVE IT FROM MODEL DATA.

 ***WARNING: THE *CONTACT PAIR SLAVE SURFACE ASSEMBLY_NDE-12345-OUT_CNS_ AND 
             THE *TIE SLAVE SURFACE ASSEMBLY_WAIST-MIDDLE-1_SET-FIX_CNS_ 
             INTERSECT EACH OTHER AT NODE 32 INSTANCE WAIST-MIDDLE-1. THE TWO 
             PAIRS WITH MENTIONED SLAVE SURFACES SHOULD NOT BE SIMULTANEOUSLY 
             PRESENT IN A STEP BECAUSE OF POSSIBLE CONVERGENCE PROBLEMS. IF ALL 
             SUCH NODES ARE IN CONTACT DURING THE ANALYSIS, OVERCONSTRAINTS 
             WILL OCCUR. USE *MODEL CHANGE, TYPE=CONTACT TO REMOVE THE *CONTACT 
             PAIR DURING THE STEP OR REMOVE IT FROM MODEL DATA.

 ***WARNING: THE *CONTACT PAIR SLAVE SURFACE ASSEMBLY_NDE-12345-OUT_CNS_ AND 
             THE *TIE SLAVE SURFACE ASSEMBLY_WAIST-MIDDLE-1_SET-FIX_CNS_ 
             INTERSECT EACH OTHER AT NODE 32 INSTANCE WAIST-MIDDLE-1. THE TWO 
             PAIRS WITH MENTIONED SLAVE SURFACES SHOULD NOT BE SIMULTANEOUSLY 
             PRESENT IN A STEP BECAUSE OF POSSIBLE CONVERGENCE PROBLEMS. IF ALL 
             SUCH NODES ARE IN CONTACT DURING THE ANALYSIS, OVERCONSTRAINTS 
             WILL OCCUR. USE *MODEL CHANGE, TYPE=CONTACT TO REMOVE THE *CONTACT 
             PAIR DURING THE STEP OR REMOVE IT FROM MODEL DATA.

 ***WARNING: THE *CONTACT PAIR SLAVE SURFACE ASSEMBLY_NDE-12345-OUT_CNS_ AND 
             THE *TIE SLAVE SURFACE ASSEMBLY_WAIST-MIDDLE-1_SET-FIX_CNS_ 
             INTERSECT EACH OTHER AT NODE 34 INSTANCE WAIST-MIDDLE-1. THE TWO 
             PAIRS WITH MENTIONED SLAVE SURFACES SHOULD NOT BE SIMULTANEOUSLY 
             PRESENT IN A STEP BECAUSE OF POSSIBLE CONVERGENCE PROBLEMS. IF ALL 
             SUCH NODES ARE IN CONTACT DURING THE ANALYSIS, OVERCONSTRAINTS 
             WILL OCCUR. USE *MODEL CHANGE, TYPE=CONTACT TO REMOVE THE *CONTACT 
             PAIR DURING THE STEP OR REMOVE IT FROM MODEL DATA.

 ***WARNING: THE *CONTACT PAIR SLAVE SURFACE ASSEMBLY_NDE-12345-OUT_CNS_ AND 
             THE *TIE SLAVE SURFACE ASSEMBLY_WAIST-MIDDLE-1_SET-FIX_CNS_ 
             INTERSECT EACH OTHER AT NODE 34 INSTANCE WAIST-MIDDLE-1. THE TWO 
             PAIRS WITH MENTIONED SLAVE SURFACES SHOULD NOT BE SIMULTANEOUSLY 
             PRESENT IN A STEP BECAUSE OF POSSIBLE CONVERGENCE PROBLEMS. IF ALL 
             SUCH NODES ARE IN CONTACT DURING THE ANALYSIS, OVERCONSTRAINTS 
             WILL OCCUR. USE *MODEL CHANGE, TYPE=CONTACT TO REMOVE THE *CONTACT 
             PAIR DURING THE STEP OR REMOVE IT FROM MODEL DATA.

 ***WARNING: THE *CONTACT PAIR SLAVE SURFACE ASSEMBLY_NDE-12345-OUT_CNS_ AND 
             THE *TIE SLAVE SURFACE ASSEMBLY_WAIST-MIDDLE-1_SET-FIX_CNS_ 
             INTERSECT EACH OTHER AT NODE 35 INSTANCE WAIST-MIDDLE-1. THE TWO 
             PAIRS WITH MENTIONED SLAVE SURFACES SHOULD NOT BE SIMULTANEOUSLY 
             PRESENT IN A STEP BECAUSE OF POSSIBLE CONVERGENCE PROBLEMS. IF ALL 
             SUCH NODES ARE IN CONTACT DURING THE ANALYSIS, OVERCONSTRAINTS 
             WILL OCCUR. USE *MODEL CHANGE, TYPE=CONTACT TO REMOVE THE *CONTACT 
             PAIR DURING THE STEP OR REMOVE IT FROM MODEL DATA.

 ***WARNING: THE *CONTACT PAIR SLAVE SURFACE ASSEMBLY_NDE-12345-OUT_CNS_ AND 
             THE *TIE SLAVE SURFACE ASSEMBLY_WAIST-MIDDLE-1_SET-FIX_CNS_ 
             INTERSECT EACH OTHER AT NODE 35 INSTANCE WAIST-MIDDLE-1. THE TWO 
             PAIRS WITH MENTIONED SLAVE SURFACES SHOULD NOT BE SIMULTANEOUSLY 
             PRESENT IN A STEP BECAUSE OF POSSIBLE CONVERGENCE PROBLEMS. IF ALL 
             SUCH NODES ARE IN CONTACT DURING THE ANALYSIS, OVERCONSTRAINTS 
             WILL OCCUR. USE *MODEL CHANGE, TYPE=CONTACT TO REMOVE THE *CONTACT 
             PAIR DURING THE STEP OR REMOVE IT FROM MODEL DATA.

 ***WARNING: THE *CONTACT PAIR SLAVE SURFACE ASSEMBLY_NDE-12345-OUT_CNS_ AND 
             THE *TIE SLAVE SURFACE ASSEMBLY_WAIST-MIDDLE-1_SET-FIX_CNS_ 
             INTERSECT EACH OTHER AT NODE 45 INSTANCE WAIST-MIDDLE-1. THE TWO 
             PAIRS WITH MENTIONED SLAVE SURFACES SHOULD NOT BE SIMULTANEOUSLY 
             PRESENT IN A STEP BECAUSE OF POSSIBLE CONVERGENCE PROBLEMS. IF ALL 
             SUCH NODES ARE IN CONTACT DURING THE ANALYSIS, OVERCONSTRAINTS 
             WILL OCCUR. USE *MODEL CHANGE, TYPE=CONTACT TO REMOVE THE *CONTACT 
             PAIR DURING THE STEP OR REMOVE IT FROM MODEL DATA.

 ***WARNING: THE *CONTACT PAIR SLAVE SURFACE ASSEMBLY_NDE-12345-OUT_CNS_ AND 
             THE *TIE SLAVE SURFACE ASSEMBLY_WAIST-MIDDLE-1_SET-FIX_CNS_ 
             INTERSECT EACH OTHER AT NODE 45 INSTANCE WAIST-MIDDLE-1. THE TWO 
             PAIRS WITH MENTIONED SLAVE SURFACES SHOULD NOT BE SIMULTANEOUSLY 
             PRESENT IN A STEP BECAUSE OF POSSIBLE CONVERGENCE PROBLEMS. IF ALL 
             SUCH NODES ARE IN CONTACT DURING THE ANALYSIS, OVERCONSTRAINTS 
             WILL OCCUR. USE *MODEL CHANGE, TYPE=CONTACT TO REMOVE THE *CONTACT 
             PAIR DURING THE STEP OR REMOVE IT FROM MODEL DATA.

 ***WARNING: THE *CONTACT PAIR SLAVE SURFACE ASSEMBLY_NDE-12345-OUT_CNS_ AND 
             THE *TIE SLAVE SURFACE ASSEMBLY_WAIST-MIDDLE-1_SET-FIX_CNS_ 
             INTERSECT EACH OTHER AT NODE 53 INSTANCE WAIST-MIDDLE-1. THE TWO 
             PAIRS WITH MENTIONED SLAVE SURFACES SHOULD NOT BE SIMULTANEOUSLY 
             PRESENT IN A STEP BECAUSE OF POSSIBLE CONVERGENCE PROBLEMS. IF ALL 
             SUCH NODES ARE IN CONTACT DURING THE ANALYSIS, OVERCONSTRAINTS 
             WILL OCCUR. USE *MODEL CHANGE, TYPE=CONTACT TO REMOVE THE *CONTACT 
             PAIR DURING THE STEP OR REMOVE IT FROM MODEL DATA.

 ***WARNING: THE *CONTACT PAIR SLAVE SURFACE ASSEMBLY_NDE-12345-OUT_CNS_ AND 
             THE *TIE SLAVE SURFACE ASSEMBLY_WAIST-MIDDLE-1_SET-FIX_CNS_ 
             INTERSECT EACH OTHER AT NODE 53 INSTANCE WAIST-MIDDLE-1. THE TWO 
             PAIRS WITH MENTIONED SLAVE SURFACES SHOULD NOT BE SIMULTANEOUSLY 
             PRESENT IN A STEP BECAUSE OF POSSIBLE CONVERGENCE PROBLEMS. IF ALL 
             SUCH NODES ARE IN CONTACT DURING THE ANALYSIS, OVERCONSTRAINTS 
             WILL OCCUR. USE *MODEL CHANGE, TYPE=CONTACT TO REMOVE THE *CONTACT 
             PAIR DURING THE STEP OR REMOVE IT FROM MODEL DATA.

 ***WARNING: THE *CONTACT PAIR SLAVE SURFACE ASSEMBLY_NDE-12345-OUT_CNS_ AND 
             THE *TIE SLAVE SURFACE ASSEMBLY_WAIST-MIDDLE-1_SET-FIX_CNS_ 
             INTERSECT EACH OTHER AT NODE 60 INSTANCE WAIST-MIDDLE-1. THE TWO 
             PAIRS WITH MENTIONED SLAVE SURFACES SHOULD NOT BE SIMULTANEOUSLY 
             PRESENT IN A STEP BECAUSE OF POSSIBLE CONVERGENCE PROBLEMS. IF ALL 
             SUCH NODES ARE IN CONTACT DURING THE ANALYSIS, OVERCONSTRAINTS 
             WILL OCCUR. USE *MODEL CHANGE, TYPE=CONTACT TO REMOVE THE *CONTACT 
             PAIR DURING THE STEP OR REMOVE IT FROM MODEL DATA.

 ***WARNING: THE *CONTACT PAIR SLAVE SURFACE ASSEMBLY_NDE-12345-OUT_CNS_ AND 
             THE *TIE SLAVE SURFACE ASSEMBLY_WAIST-MIDDLE-1_SET-FIX_CNS_ 
             INTERSECT EACH OTHER AT NODE 60 INSTANCE WAIST-MIDDLE-1. THE TWO 
             PAIRS WITH MENTIONED SLAVE SURFACES SHOULD NOT BE SIMULTANEOUSLY 
             PRESENT IN A STEP BECAUSE OF POSSIBLE CONVERGENCE PROBLEMS. IF ALL 
             SUCH NODES ARE IN CONTACT DURING THE ANALYSIS, OVERCONSTRAINTS 
             WILL OCCUR. USE *MODEL CHANGE, TYPE=CONTACT TO REMOVE THE *CONTACT 
             PAIR DURING THE STEP OR REMOVE IT FROM MODEL DATA.

 ***WARNING: THE *CONTACT PAIR SLAVE SURFACE ASSEMBLY_NDE-12345-OUT_CNS_ AND 
             THE *TIE SLAVE SURFACE ASSEMBLY_WAIST-MIDDLE-1_SET-FIX_CNS_ 
             INTERSECT EACH OTHER AT NODE 61 INSTANCE WAIST-MIDDLE-1. THE TWO 
             PAIRS WITH MENTIONED SLAVE SURFACES SHOULD NOT BE SIMULTANEOUSLY 
             PRESENT IN A STEP BECAUSE OF POSSIBLE CONVERGENCE PROBLEMS. IF ALL 
             SUCH NODES ARE IN CONTACT DURING THE ANALYSIS, OVERCONSTRAINTS 
             WILL OCCUR. USE *MODEL CHANGE, TYPE=CONTACT TO REMOVE THE *CONTACT 
             PAIR DURING THE STEP OR REMOVE IT FROM MODEL DATA.

 ***WARNING: THE *CONTACT PAIR SLAVE SURFACE ASSEMBLY_NDE-12345-OUT_CNS_ AND 
             THE *TIE SLAVE SURFACE ASSEMBLY_WAIST-MIDDLE-1_SET-FIX_CNS_ 
             INTERSECT EACH OTHER AT NODE 61 INSTANCE WAIST-MIDDLE-1. THE TWO 
             PAIRS WITH MENTIONED SLAVE SURFACES SHOULD NOT BE SIMULTANEOUSLY 
             PRESENT IN A STEP BECAUSE OF POSSIBLE CONVERGENCE PROBLEMS. IF ALL 
             SUCH NODES ARE IN CONTACT DURING THE ANALYSIS, OVERCONSTRAINTS 
             WILL OCCUR. USE *MODEL CHANGE, TYPE=CONTACT TO REMOVE THE *CONTACT 
             PAIR DURING THE STEP OR REMOVE IT FROM MODEL DATA.

 ***WARNING: THE *CONTACT PAIR SLAVE SURFACE ASSEMBLY_NDE-12345-OUT_CNS_ AND 
             THE *TIE SLAVE SURFACE ASSEMBLY_WAIST-MIDDLE-1_SET-FIX_CNS_ 
             INTERSECT EACH OTHER AT NODE 62 INSTANCE WAIST-MIDDLE-1. THE TWO 
             PAIRS WITH MENTIONED SLAVE SURFACES SHOULD NOT BE SIMULTANEOUSLY 
             PRESENT IN A STEP BECAUSE OF POSSIBLE CONVERGENCE PROBLEMS. IF ALL 
             SUCH NODES ARE IN CONTACT DURING THE ANALYSIS, OVERCONSTRAINTS 
             WILL OCCUR. USE *MODEL CHANGE, TYPE=CONTACT TO REMOVE THE *CONTACT 
             PAIR DURING THE STEP OR REMOVE IT FROM MODEL DATA.

 ***WARNING: THE *CONTACT PAIR SLAVE SURFACE ASSEMBLY_NDE-12345-OUT_CNS_ AND 
             THE *TIE SLAVE SURFACE ASSEMBLY_WAIST-MIDDLE-1_SET-FIX_CNS_ 
             INTERSECT EACH OTHER AT NODE 62 INSTANCE WAIST-MIDDLE-1. THE TWO 
             PAIRS WITH MENTIONED SLAVE SURFACES SHOULD NOT BE SIMULTANEOUSLY 
             PRESENT IN A STEP BECAUSE OF POSSIBLE CONVERGENCE PROBLEMS. IF ALL 
             SUCH NODES ARE IN CONTACT DURING THE ANALYSIS, OVERCONSTRAINTS 
             WILL OCCUR. USE *MODEL CHANGE, TYPE=CONTACT TO REMOVE THE *CONTACT 
             PAIR DURING THE STEP OR REMOVE IT FROM MODEL DATA.

 ***WARNING: THE *CONTACT PAIR SLAVE SURFACE ASSEMBLY_NDE-12345-OUT_CNS_ AND 
             THE *TIE SLAVE SURFACE ASSEMBLY_WAIST-MIDDLE-1_SET-FIX_CNS_ 
             INTERSECT EACH OTHER AT NODE 63 INSTANCE WAIST-MIDDLE-1. THE TWO 
             PAIRS WITH MENTIONED SLAVE SURFACES SHOULD NOT BE SIMULTANEOUSLY 
             PRESENT IN A STEP BECAUSE OF POSSIBLE CONVERGENCE PROBLEMS. IF ALL 
             SUCH NODES ARE IN CONTACT DURING THE ANALYSIS, OVERCONSTRAINTS 
             WILL OCCUR. USE *MODEL CHANGE, TYPE=CONTACT TO REMOVE THE *CONTACT 
             PAIR DURING THE STEP OR REMOVE IT FROM MODEL DATA.

 ***WARNING: THE *CONTACT PAIR SLAVE SURFACE ASSEMBLY_NDE-12345-OUT_CNS_ AND 
             THE *TIE SLAVE SURFACE ASSEMBLY_WAIST-MIDDLE-1_SET-FIX_CNS_ 
             INTERSECT EACH OTHER AT NODE 63 INSTANCE WAIST-MIDDLE-1. THE TWO 
             PAIRS WITH MENTIONED SLAVE SURFACES SHOULD NOT BE SIMULTANEOUSLY 
             PRESENT IN A STEP BECAUSE OF POSSIBLE CONVERGENCE PROBLEMS. IF ALL 
             SUCH NODES ARE IN CONTACT DURING THE ANALYSIS, OVERCONSTRAINTS 
             WILL OCCUR. USE *MODEL CHANGE, TYPE=CONTACT TO REMOVE THE *CONTACT 
             PAIR DURING THE STEP OR REMOVE IT FROM MODEL DATA.

 ***WARNING: THE *CONTACT PAIR SLAVE SURFACE ASSEMBLY_NDE-12345-OUT_CNS_ AND 
             THE *TIE SLAVE SURFACE ASSEMBLY_WAIST-MIDDLE-1_SET-FIX_CNS_ 
             INTERSECT EACH OTHER AT NODE 64 INSTANCE WAIST-MIDDLE-1. THE TWO 
             PAIRS WITH MENTIONED SLAVE SURFACES SHOULD NOT BE SIMULTANEOUSLY 
             PRESENT IN A STEP BECAUSE OF POSSIBLE CONVERGENCE PROBLEMS. IF ALL 
             SUCH NODES ARE IN CONTACT DURING THE ANALYSIS, OVERCONSTRAINTS 
             WILL OCCUR. USE *MODEL CHANGE, TYPE=CONTACT TO REMOVE THE *CONTACT 
             PAIR DURING THE STEP OR REMOVE IT FROM MODEL DATA.

 ***WARNING: THE *CONTACT PAIR SLAVE SURFACE ASSEMBLY_NDE-12345-OUT_CNS_ AND 
             THE *TIE SLAVE SURFACE ASSEMBLY_WAIST-MIDDLE-1_SET-FIX_CNS_ 
             INTERSECT EACH OTHER AT NODE 64 INSTANCE WAIST-MIDDLE-1. THE TWO 
             PAIRS WITH MENTIONED SLAVE SURFACES SHOULD NOT BE SIMULTANEOUSLY 
             PRESENT IN A STEP BECAUSE OF POSSIBLE CONVERGENCE PROBLEMS. IF ALL 
             SUCH NODES ARE IN CONTACT DURING THE ANALYSIS, OVERCONSTRAINTS 
             WILL OCCUR. USE *MODEL CHANGE, TYPE=CONTACT TO REMOVE THE *CONTACT 
             PAIR DURING THE STEP OR REMOVE IT FROM MODEL DATA.

 ***WARNING: THE *CONTACT PAIR SLAVE SURFACE ASSEMBLY_NDE-12345-OUT_CNS_ AND 
             THE *TIE SLAVE SURFACE ASSEMBLY_WAIST-MIDDLE-1_SET-FIX_CNS_ 
             INTERSECT EACH OTHER AT NODE 65 INSTANCE WAIST-MIDDLE-1. THE TWO 
             PAIRS WITH MENTIONED SLAVE SURFACES SHOULD NOT BE SIMULTANEOUSLY 
             PRESENT IN A STEP BECAUSE OF POSSIBLE CONVERGENCE PROBLEMS. IF ALL 
             SUCH NODES ARE IN CONTACT DURING THE ANALYSIS, OVERCONSTRAINTS 
             WILL OCCUR. USE *MODEL CHANGE, TYPE=CONTACT TO REMOVE THE *CONTACT 
             PAIR DURING THE STEP OR REMOVE IT FROM MODEL DATA.

 ***WARNING: THE *CONTACT PAIR SLAVE SURFACE ASSEMBLY_NDE-12345-OUT_CNS_ AND 
             THE *TIE SLAVE SURFACE ASSEMBLY_WAIST-MIDDLE-1_SET-FIX_CNS_ 
             INTERSECT EACH OTHER AT NODE 65 INSTANCE WAIST-MIDDLE-1. THE TWO 
             PAIRS WITH MENTIONED SLAVE SURFACES SHOULD NOT BE SIMULTANEOUSLY 
             PRESENT IN A STEP BECAUSE OF POSSIBLE CONVERGENCE PROBLEMS. IF ALL 
             SUCH NODES ARE IN CONTACT DURING THE ANALYSIS, OVERCONSTRAINTS 
             WILL OCCUR. USE *MODEL CHANGE, TYPE=CONTACT TO REMOVE THE *CONTACT 
             PAIR DURING THE STEP OR REMOVE IT FROM MODEL DATA.

 ***WARNING: THE *CONTACT PAIR SLAVE SURFACE ASSEMBLY_NDE-12345-OUT_CNS_ AND 
             THE *TIE SLAVE SURFACE ASSEMBLY_WAIST-MIDDLE-1_SET-FIX_CNS_ 
             INTERSECT EACH OTHER AT NODE 66 INSTANCE WAIST-MIDDLE-1. THE TWO 
             PAIRS WITH MENTIONED SLAVE SURFACES SHOULD NOT BE SIMULTANEOUSLY 
             PRESENT IN A STEP BECAUSE OF POSSIBLE CONVERGENCE PROBLEMS. IF ALL 
             SUCH NODES ARE IN CONTACT DURING THE ANALYSIS, OVERCONSTRAINTS 
             WILL OCCUR. USE *MODEL CHANGE, TYPE=CONTACT TO REMOVE THE *CONTACT 
             PAIR DURING THE STEP OR REMOVE IT FROM MODEL DATA.

 ***WARNING: THE *CONTACT PAIR SLAVE SURFACE ASSEMBLY_NDE-12345-OUT_CNS_ AND 
             THE *TIE SLAVE SURFACE ASSEMBLY_WAIST-MIDDLE-1_SET-FIX_CNS_ 
             INTERSECT EACH OTHER AT NODE 66 INSTANCE WAIST-MIDDLE-1. THE TWO 
             PAIRS WITH MENTIONED SLAVE SURFACES SHOULD NOT BE SIMULTANEOUSLY 
             PRESENT IN A STEP BECAUSE OF POSSIBLE CONVERGENCE PROBLEMS. IF ALL 
             SUCH NODES ARE IN CONTACT DURING THE ANALYSIS, OVERCONSTRAINTS 
             WILL OCCUR. USE *MODEL CHANGE, TYPE=CONTACT TO REMOVE THE *CONTACT 
             PAIR DURING THE STEP OR REMOVE IT FROM MODEL DATA.

 ***WARNING: THE *CONTACT PAIR SLAVE SURFACE ASSEMBLY_NDE-12345-OUT_CNS_ AND 
             THE *TIE SLAVE SURFACE ASSEMBLY_WAIST-MIDDLE-1_SET-FIX_CNS_ 
             INTERSECT EACH OTHER AT NODE 69 INSTANCE WAIST-MIDDLE-1. THE TWO 
             PAIRS WITH MENTIONED SLAVE SURFACES SHOULD NOT BE SIMULTANEOUSLY 
             PRESENT IN A STEP BECAUSE OF POSSIBLE CONVERGENCE PROBLEMS. IF ALL 
             SUCH NODES ARE IN CONTACT DURING THE ANALYSIS, OVERCONSTRAINTS 
             WILL OCCUR. USE *MODEL CHANGE, TYPE=CONTACT TO REMOVE THE *CONTACT 
             PAIR DURING THE STEP OR REMOVE IT FROM MODEL DATA.

 ***WARNING: THE *CONTACT PAIR SLAVE SURFACE ASSEMBLY_NDE-12345-OUT_CNS_ AND 
             THE *TIE SLAVE SURFACE ASSEMBLY_WAIST-MIDDLE-1_SET-FIX_CNS_ 
             INTERSECT EACH OTHER AT NODE 69 INSTANCE WAIST-MIDDLE-1. THE TWO 
             PAIRS WITH MENTIONED SLAVE SURFACES SHOULD NOT BE SIMULTANEOUSLY 
             PRESENT IN A STEP BECAUSE OF POSSIBLE CONVERGENCE PROBLEMS. IF ALL 
             SUCH NODES ARE IN CONTACT DURING THE ANALYSIS, OVERCONSTRAINTS 
             WILL OCCUR. USE *MODEL CHANGE, TYPE=CONTACT TO REMOVE THE *CONTACT 
             PAIR DURING THE STEP OR REMOVE IT FROM MODEL DATA.

 ***WARNING: THE *CONTACT PAIR SLAVE SURFACE ASSEMBLY_NDE-12345-OUT_CNS_ AND 
             THE *TIE SLAVE SURFACE ASSEMBLY_WAIST-MIDDLE-1_SET-FIX_CNS_ 
             INTERSECT EACH OTHER AT NODE 70 INSTANCE WAIST-MIDDLE-1. THE TWO 
             PAIRS WITH MENTIONED SLAVE SURFACES SHOULD NOT BE SIMULTANEOUSLY 
             PRESENT IN A STEP BECAUSE OF POSSIBLE CONVERGENCE PROBLEMS. IF ALL 
             SUCH NODES ARE IN CONTACT DURING THE ANALYSIS, OVERCONSTRAINTS 
             WILL OCCUR. USE *MODEL CHANGE, TYPE=CONTACT TO REMOVE THE *CONTACT 
             PAIR DURING THE STEP OR REMOVE IT FROM MODEL DATA.

 ***WARNING: THE *CONTACT PAIR SLAVE SURFACE ASSEMBLY_NDE-12345-OUT_CNS_ AND 
             THE *TIE SLAVE SURFACE ASSEMBLY_WAIST-MIDDLE-1_SET-FIX_CNS_ 
             INTERSECT EACH OTHER AT NODE 70 INSTANCE WAIST-MIDDLE-1. THE TWO 
             PAIRS WITH MENTIONED SLAVE SURFACES SHOULD NOT BE SIMULTANEOUSLY 
             PRESENT IN A STEP BECAUSE OF POSSIBLE CONVERGENCE PROBLEMS. IF ALL 
             SUCH NODES ARE IN CONTACT DURING THE ANALYSIS, OVERCONSTRAINTS 
             WILL OCCUR. USE *MODEL CHANGE, TYPE=CONTACT TO REMOVE THE *CONTACT 
             PAIR DURING THE STEP OR REMOVE IT FROM MODEL DATA.

 ***WARNING: THE *CONTACT PAIR SLAVE SURFACE ASSEMBLY_NDE-12345-OUT_CNS_ AND 
             THE *TIE SLAVE SURFACE ASSEMBLY_WAIST-MIDDLE-1_SET-FIX_CNS_ 
             INTERSECT EACH OTHER AT NODE 71 INSTANCE WAIST-MIDDLE-1. THE TWO 
             PAIRS WITH MENTIONED SLAVE SURFACES SHOULD NOT BE SIMULTANEOUSLY 
             PRESENT IN A STEP BECAUSE OF POSSIBLE CONVERGENCE PROBLEMS. IF ALL 
             SUCH NODES ARE IN CONTACT DURING THE ANALYSIS, OVERCONSTRAINTS 
             WILL OCCUR. USE *MODEL CHANGE, TYPE=CONTACT TO REMOVE THE *CONTACT 
             PAIR DURING THE STEP OR REMOVE IT FROM MODEL DATA.

 ***WARNING: THE *CONTACT PAIR SLAVE SURFACE ASSEMBLY_NDE-12345-OUT_CNS_ AND 
             THE *TIE SLAVE SURFACE ASSEMBLY_WAIST-MIDDLE-1_SET-FIX_CNS_ 
             INTERSECT EACH OTHER AT NODE 71 INSTANCE WAIST-MIDDLE-1. THE TWO 
             PAIRS WITH MENTIONED SLAVE SURFACES SHOULD NOT BE SIMULTANEOUSLY 
             PRESENT IN A STEP BECAUSE OF POSSIBLE CONVERGENCE PROBLEMS. IF ALL 
             SUCH NODES ARE IN CONTACT DURING THE ANALYSIS, OVERCONSTRAINTS 
             WILL OCCUR. USE *MODEL CHANGE, TYPE=CONTACT TO REMOVE THE *CONTACT 
             PAIR DURING THE STEP OR REMOVE IT FROM MODEL DATA.

 ***WARNING: THE *CONTACT PAIR SLAVE SURFACE ASSEMBLY_NDE-12345-OUT_CNS_ AND 
             THE *TIE SLAVE SURFACE ASSEMBLY_WAIST-MIDDLE-1_SET-FIX_CNS_ 
             INTERSECT EACH OTHER AT NODE 72 INSTANCE WAIST-MIDDLE-1. THE TWO 
             PAIRS WITH MENTIONED SLAVE SURFACES SHOULD NOT BE SIMULTANEOUSLY 
             PRESENT IN A STEP BECAUSE OF POSSIBLE CONVERGENCE PROBLEMS. IF ALL 
             SUCH NODES ARE IN CONTACT DURING THE ANALYSIS, OVERCONSTRAINTS 
             WILL OCCUR. USE *MODEL CHANGE, TYPE=CONTACT TO REMOVE THE *CONTACT 
             PAIR DURING THE STEP OR REMOVE IT FROM MODEL DATA.

 ***WARNING: THE *CONTACT PAIR SLAVE SURFACE ASSEMBLY_NDE-12345-OUT_CNS_ AND 
             THE *TIE SLAVE SURFACE ASSEMBLY_WAIST-MIDDLE-1_SET-FIX_CNS_ 
             INTERSECT EACH OTHER AT NODE 72 INSTANCE WAIST-MIDDLE-1. THE TWO 
             PAIRS WITH MENTIONED SLAVE SURFACES SHOULD NOT BE SIMULTANEOUSLY 
             PRESENT IN A STEP BECAUSE OF POSSIBLE CONVERGENCE PROBLEMS. IF ALL 
             SUCH NODES ARE IN CONTACT DURING THE ANALYSIS, OVERCONSTRAINTS 
             WILL OCCUR. USE *MODEL CHANGE, TYPE=CONTACT TO REMOVE THE *CONTACT 
             PAIR DURING THE STEP OR REMOVE IT FROM MODEL DATA.

 ***WARNING: THE *CONTACT PAIR SLAVE SURFACE ASSEMBLY_NDE-12345-OUT_CNS_ AND 
             THE *TIE SLAVE SURFACE ASSEMBLY_WAIST-MIDDLE-1_SET-FIX_CNS_ 
             INTERSECT EACH OTHER AT NODE 73 INSTANCE WAIST-MIDDLE-1. THE TWO 
             PAIRS WITH MENTIONED SLAVE SURFACES SHOULD NOT BE SIMULTANEOUSLY 
             PRESENT IN A STEP BECAUSE OF POSSIBLE CONVERGENCE PROBLEMS. IF ALL 
             SUCH NODES ARE IN CONTACT DURING THE ANALYSIS, OVERCONSTRAINTS 
             WILL OCCUR. USE *MODEL CHANGE, TYPE=CONTACT TO REMOVE THE *CONTACT 
             PAIR DURING THE STEP OR REMOVE IT FROM MODEL DATA.

 ***WARNING: THE *CONTACT PAIR SLAVE SURFACE ASSEMBLY_NDE-12345-OUT_CNS_ AND 
             THE *TIE SLAVE SURFACE ASSEMBLY_WAIST-MIDDLE-1_SET-FIX_CNS_ 
             INTERSECT EACH OTHER AT NODE 73 INSTANCE WAIST-MIDDLE-1. THE TWO 
             PAIRS WITH MENTIONED SLAVE SURFACES SHOULD NOT BE SIMULTANEOUSLY 
             PRESENT IN A STEP BECAUSE OF POSSIBLE CONVERGENCE PROBLEMS. IF ALL 
             SUCH NODES ARE IN CONTACT DURING THE ANALYSIS, OVERCONSTRAINTS 
             WILL OCCUR. USE *MODEL CHANGE, TYPE=CONTACT TO REMOVE THE *CONTACT 
             PAIR DURING THE STEP OR REMOVE IT FROM MODEL DATA.

 ***WARNING: THE *CONTACT PAIR SLAVE SURFACE ASSEMBLY_NDE-12345-OUT_CNS_ AND 
             THE *TIE SLAVE SURFACE ASSEMBLY_WAIST-MIDDLE-1_SET-FIX_CNS_ 
             INTERSECT EACH OTHER AT NODE 74 INSTANCE WAIST-MIDDLE-1. THE TWO 
             PAIRS WITH MENTIONED SLAVE SURFACES SHOULD NOT BE SIMULTANEOUSLY 
             PRESENT IN A STEP BECAUSE OF POSSIBLE CONVERGENCE PROBLEMS. IF ALL 
             SUCH NODES ARE IN CONTACT DURING THE ANALYSIS, OVERCONSTRAINTS 
             WILL OCCUR. USE *MODEL CHANGE, TYPE=CONTACT TO REMOVE THE *CONTACT 
             PAIR DURING THE STEP OR REMOVE IT FROM MODEL DATA.

 ***WARNING: THE *CONTACT PAIR SLAVE SURFACE ASSEMBLY_NDE-12345-OUT_CNS_ AND 
             THE *TIE SLAVE SURFACE ASSEMBLY_WAIST-MIDDLE-1_SET-FIX_CNS_ 
             INTERSECT EACH OTHER AT NODE 74 INSTANCE WAIST-MIDDLE-1. THE TWO 
             PAIRS WITH MENTIONED SLAVE SURFACES SHOULD NOT BE SIMULTANEOUSLY 
             PRESENT IN A STEP BECAUSE OF POSSIBLE CONVERGENCE PROBLEMS. IF ALL 
             SUCH NODES ARE IN CONTACT DURING THE ANALYSIS, OVERCONSTRAINTS 
             WILL OCCUR. USE *MODEL CHANGE, TYPE=CONTACT TO REMOVE THE *CONTACT 
             PAIR DURING THE STEP OR REMOVE IT FROM MODEL DATA.

 ***WARNING: THE *CONTACT PAIR SLAVE SURFACE ASSEMBLY_NDE-12345-OUT_CNS_ AND 
             THE *TIE SLAVE SURFACE ASSEMBLY_WAIST-MIDDLE-1_SET-FIX_CNS_ 
             INTERSECT EACH OTHER AT NODE 75 INSTANCE WAIST-MIDDLE-1. THE TWO 
             PAIRS WITH MENTIONED SLAVE SURFACES SHOULD NOT BE SIMULTANEOUSLY 
             PRESENT IN A STEP BECAUSE OF POSSIBLE CONVERGENCE PROBLEMS. IF ALL 
             SUCH NODES ARE IN CONTACT DURING THE ANALYSIS, OVERCONSTRAINTS 
             WILL OCCUR. USE *MODEL CHANGE, TYPE=CONTACT TO REMOVE THE *CONTACT 
             PAIR DURING THE STEP OR REMOVE IT FROM MODEL DATA.

 ***WARNING: THE *CONTACT PAIR SLAVE SURFACE ASSEMBLY_NDE-12345-OUT_CNS_ AND 
             THE *TIE SLAVE SURFACE ASSEMBLY_WAIST-MIDDLE-1_SET-FIX_CNS_ 
             INTERSECT EACH OTHER AT NODE 75 INSTANCE WAIST-MIDDLE-1. THE TWO 
             PAIRS WITH MENTIONED SLAVE SURFACES SHOULD NOT BE SIMULTANEOUSLY 
             PRESENT IN A STEP BECAUSE OF POSSIBLE CONVERGENCE PROBLEMS. IF ALL 
             SUCH NODES ARE IN CONTACT DURING THE ANALYSIS, OVERCONSTRAINTS 
             WILL OCCUR. USE *MODEL CHANGE, TYPE=CONTACT TO REMOVE THE *CONTACT 
             PAIR DURING THE STEP OR REMOVE IT FROM MODEL DATA.

 ***WARNING: THE *CONTACT PAIR SLAVE SURFACE ASSEMBLY_NDE-12345-OUT_CNS_ AND 
             THE *TIE SLAVE SURFACE ASSEMBLY_WAIST-MIDDLE-1_SET-FIX_CNS_ 
             INTERSECT EACH OTHER AT NODE 76 INSTANCE WAIST-MIDDLE-1. THE TWO 
             PAIRS WITH MENTIONED SLAVE SURFACES SHOULD NOT BE SIMULTANEOUSLY 
             PRESENT IN A STEP BECAUSE OF POSSIBLE CONVERGENCE PROBLEMS. IF ALL 
             SUCH NODES ARE IN CONTACT DURING THE ANALYSIS, OVERCONSTRAINTS 
             WILL OCCUR. USE *MODEL CHANGE, TYPE=CONTACT TO REMOVE THE *CONTACT 
             PAIR DURING THE STEP OR REMOVE IT FROM MODEL DATA.

 ***WARNING: THE *CONTACT PAIR SLAVE SURFACE ASSEMBLY_NDE-12345-OUT_CNS_ AND 
             THE *TIE SLAVE SURFACE ASSEMBLY_WAIST-MIDDLE-1_SET-FIX_CNS_ 
             INTERSECT EACH OTHER AT NODE 76 INSTANCE WAIST-MIDDLE-1. THE TWO 
             PAIRS WITH MENTIONED SLAVE SURFACES SHOULD NOT BE SIMULTANEOUSLY 
             PRESENT IN A STEP BECAUSE OF POSSIBLE CONVERGENCE PROBLEMS. IF ALL 
             SUCH NODES ARE IN CONTACT DURING THE ANALYSIS, OVERCONSTRAINTS 
             WILL OCCUR. USE *MODEL CHANGE, TYPE=CONTACT TO REMOVE THE *CONTACT 
             PAIR DURING THE STEP OR REMOVE IT FROM MODEL DATA.

 ***WARNING: THE *CONTACT PAIR SLAVE SURFACE ASSEMBLY_NDE-12345-OUT_CNS_ AND 
             THE *TIE SLAVE SURFACE ASSEMBLY_WAIST-MIDDLE-1_SET-FIX_CNS_ 
             INTERSECT EACH OTHER AT NODE 77 INSTANCE WAIST-MIDDLE-1. THE TWO 
             PAIRS WITH MENTIONED SLAVE SURFACES SHOULD NOT BE SIMULTANEOUSLY 
             PRESENT IN A STEP BECAUSE OF POSSIBLE CONVERGENCE PROBLEMS. IF ALL 
             SUCH NODES ARE IN CONTACT DURING THE ANALYSIS, OVERCONSTRAINTS 
             WILL OCCUR. USE *MODEL CHANGE, TYPE=CONTACT TO REMOVE THE *CONTACT 
             PAIR DURING THE STEP OR REMOVE IT FROM MODEL DATA.

 ***WARNING: THE *CONTACT PAIR SLAVE SURFACE ASSEMBLY_NDE-12345-OUT_CNS_ AND 
             THE *TIE SLAVE SURFACE ASSEMBLY_WAIST-MIDDLE-1_SET-FIX_CNS_ 
             INTERSECT EACH OTHER AT NODE 77 INSTANCE WAIST-MIDDLE-1. THE TWO 
             PAIRS WITH MENTIONED SLAVE SURFACES SHOULD NOT BE SIMULTANEOUSLY 
             PRESENT IN A STEP BECAUSE OF POSSIBLE CONVERGENCE PROBLEMS. IF ALL 
             SUCH NODES ARE IN CONTACT DURING THE ANALYSIS, OVERCONSTRAINTS 
             WILL OCCUR. USE *MODEL CHANGE, TYPE=CONTACT TO REMOVE THE *CONTACT 
             PAIR DURING THE STEP OR REMOVE IT FROM MODEL DATA.

 ***WARNING: THE *CONTACT PAIR SLAVE SURFACE ASSEMBLY_NDE-12345-OUT_CNS_ AND 
             THE *TIE SLAVE SURFACE ASSEMBLY_WAIST-MIDDLE-1_SET-FIX_CNS_ 
             INTERSECT EACH OTHER AT NODE 78 INSTANCE WAIST-MIDDLE-1. THE TWO 
             PAIRS WITH MENTIONED SLAVE SURFACES SHOULD NOT BE SIMULTANEOUSLY 
             PRESENT IN A STEP BECAUSE OF POSSIBLE CONVERGENCE PROBLEMS. IF ALL 
             SUCH NODES ARE IN CONTACT DURING THE ANALYSIS, OVERCONSTRAINTS 
             WILL OCCUR. USE *MODEL CHANGE, TYPE=CONTACT TO REMOVE THE *CONTACT 
             PAIR DURING THE STEP OR REMOVE IT FROM MODEL DATA.

 ***WARNING: THE *CONTACT PAIR SLAVE SURFACE ASSEMBLY_NDE-12345-OUT_CNS_ AND 
             THE *TIE SLAVE SURFACE ASSEMBLY_WAIST-MIDDLE-1_SET-FIX_CNS_ 
             INTERSECT EACH OTHER AT NODE 78 INSTANCE WAIST-MIDDLE-1. THE TWO 
             PAIRS WITH MENTIONED SLAVE SURFACES SHOULD NOT BE SIMULTANEOUSLY 
             PRESENT IN A STEP BECAUSE OF POSSIBLE CONVERGENCE PROBLEMS. IF ALL 
             SUCH NODES ARE IN CONTACT DURING THE ANALYSIS, OVERCONSTRAINTS 
             WILL OCCUR. USE *MODEL CHANGE, TYPE=CONTACT TO REMOVE THE *CONTACT 
             PAIR DURING THE STEP OR REMOVE IT FROM MODEL DATA.

 ***WARNING: THE *CONTACT PAIR SLAVE SURFACE ASSEMBLY_NDE-12345-OUT_CNS_ AND 
             THE *TIE SLAVE SURFACE ASSEMBLY_WAIST-MIDDLE-1_SET-FIX_CNS_ 
             INTERSECT EACH OTHER AT NODE 79 INSTANCE WAIST-MIDDLE-1. THE TWO 
             PAIRS WITH MENTIONED SLAVE SURFACES SHOULD NOT BE SIMULTANEOUSLY 
             PRESENT IN A STEP BECAUSE OF POSSIBLE CONVERGENCE PROBLEMS. IF ALL 
             SUCH NODES ARE IN CONTACT DURING THE ANALYSIS, OVERCONSTRAINTS 
             WILL OCCUR. USE *MODEL CHANGE, TYPE=CONTACT TO REMOVE THE *CONTACT 
             PAIR DURING THE STEP OR REMOVE IT FROM MODEL DATA.

 ***WARNING: THE *CONTACT PAIR SLAVE SURFACE ASSEMBLY_NDE-12345-OUT_CNS_ AND 
             THE *TIE SLAVE SURFACE ASSEMBLY_WAIST-MIDDLE-1_SET-FIX_CNS_ 
             INTERSECT EACH OTHER AT NODE 79 INSTANCE WAIST-MIDDLE-1. THE TWO 
             PAIRS WITH MENTIONED SLAVE SURFACES SHOULD NOT BE SIMULTANEOUSLY 
             PRESENT IN A STEP BECAUSE OF POSSIBLE CONVERGENCE PROBLEMS. IF ALL 
             SUCH NODES ARE IN CONTACT DURING THE ANALYSIS, OVERCONSTRAINTS 
             WILL OCCUR. USE *MODEL CHANGE, TYPE=CONTACT TO REMOVE THE *CONTACT 
             PAIR DURING THE STEP OR REMOVE IT FROM MODEL DATA.

 ***WARNING: THE *CONTACT PAIR SLAVE SURFACE ASSEMBLY_NDE-12345-OUT_CNS_ AND 
             THE *TIE SLAVE SURFACE ASSEMBLY_WAIST-MIDDLE-1_SET-FIX_CNS_ 
             INTERSECT EACH OTHER AT NODE 80 INSTANCE WAIST-MIDDLE-1. THE TWO 
             PAIRS WITH MENTIONED SLAVE SURFACES SHOULD NOT BE SIMULTANEOUSLY 
             PRESENT IN A STEP BECAUSE OF POSSIBLE CONVERGENCE PROBLEMS. IF ALL 
             SUCH NODES ARE IN CONTACT DURING THE ANALYSIS, OVERCONSTRAINTS 
             WILL OCCUR. USE *MODEL CHANGE, TYPE=CONTACT TO REMOVE THE *CONTACT 
             PAIR DURING THE STEP OR REMOVE IT FROM MODEL DATA.

 ***WARNING: THE *CONTACT PAIR SLAVE SURFACE ASSEMBLY_NDE-12345-OUT_CNS_ AND 
             THE *TIE SLAVE SURFACE ASSEMBLY_WAIST-MIDDLE-1_SET-FIX_CNS_ 
             INTERSECT EACH OTHER AT NODE 80 INSTANCE WAIST-MIDDLE-1. THE TWO 
             PAIRS WITH MENTIONED SLAVE SURFACES SHOULD NOT BE SIMULTANEOUSLY 
             PRESENT IN A STEP BECAUSE OF POSSIBLE CONVERGENCE PROBLEMS. IF ALL 
             SUCH NODES ARE IN CONTACT DURING THE ANALYSIS, OVERCONSTRAINTS 
             WILL OCCUR. USE *MODEL CHANGE, TYPE=CONTACT TO REMOVE THE *CONTACT 
             PAIR DURING THE STEP OR REMOVE IT FROM MODEL DATA.

 ***WARNING: THE *CONTACT PAIR SLAVE SURFACE ASSEMBLY_NDE-12345-OUT_CNS_ AND 
             THE *TIE SLAVE SURFACE ASSEMBLY_WAIST-MIDDLE-1_SET-FIX_CNS_ 
             INTERSECT EACH OTHER AT NODE 81 INSTANCE WAIST-MIDDLE-1. THE TWO 
             PAIRS WITH MENTIONED SLAVE SURFACES SHOULD NOT BE SIMULTANEOUSLY 
             PRESENT IN A STEP BECAUSE OF POSSIBLE CONVERGENCE PROBLEMS. IF ALL 
             SUCH NODES ARE IN CONTACT DURING THE ANALYSIS, OVERCONSTRAINTS 
             WILL OCCUR. USE *MODEL CHANGE, TYPE=CONTACT TO REMOVE THE *CONTACT 
             PAIR DURING THE STEP OR REMOVE IT FROM MODEL DATA.

 ***WARNING: THE *CONTACT PAIR SLAVE SURFACE ASSEMBLY_NDE-12345-OUT_CNS_ AND 
             THE *TIE SLAVE SURFACE ASSEMBLY_WAIST-MIDDLE-1_SET-FIX_CNS_ 
             INTERSECT EACH OTHER AT NODE 81 INSTANCE WAIST-MIDDLE-1. THE TWO 
             PAIRS WITH MENTIONED SLAVE SURFACES SHOULD NOT BE SIMULTANEOUSLY 
             PRESENT IN A STEP BECAUSE OF POSSIBLE CONVERGENCE PROBLEMS. IF ALL 
             SUCH NODES ARE IN CONTACT DURING THE ANALYSIS, OVERCONSTRAINTS 
             WILL OCCUR. USE *MODEL CHANGE, TYPE=CONTACT TO REMOVE THE *CONTACT 
             PAIR DURING THE STEP OR REMOVE IT FROM MODEL DATA.

 ***WARNING: THE *CONTACT PAIR SLAVE SURFACE ASSEMBLY_NDE-12345-OUT_CNS_ AND 
             THE *TIE SLAVE SURFACE ASSEMBLY_WAIST-MIDDLE-1_SET-FIX_CNS_ 
             INTERSECT EACH OTHER AT NODE 82 INSTANCE WAIST-MIDDLE-1. THE TWO 
             PAIRS WITH MENTIONED SLAVE SURFACES SHOULD NOT BE SIMULTANEOUSLY 
             PRESENT IN A STEP BECAUSE OF POSSIBLE CONVERGENCE PROBLEMS. IF ALL 
             SUCH NODES ARE IN CONTACT DURING THE ANALYSIS, OVERCONSTRAINTS 
             WILL OCCUR. USE *MODEL CHANGE, TYPE=CONTACT TO REMOVE THE *CONTACT 
             PAIR DURING THE STEP OR REMOVE IT FROM MODEL DATA.

 ***WARNING: THE *CONTACT PAIR SLAVE SURFACE ASSEMBLY_NDE-12345-OUT_CNS_ AND 
             THE *TIE SLAVE SURFACE ASSEMBLY_WAIST-MIDDLE-1_SET-FIX_CNS_ 
             INTERSECT EACH OTHER AT NODE 82 INSTANCE WAIST-MIDDLE-1. THE TWO 
             PAIRS WITH MENTIONED SLAVE SURFACES SHOULD NOT BE SIMULTANEOUSLY 
             PRESENT IN A STEP BECAUSE OF POSSIBLE CONVERGENCE PROBLEMS. IF ALL 
             SUCH NODES ARE IN CONTACT DURING THE ANALYSIS, OVERCONSTRAINTS 
             WILL OCCUR. USE *MODEL CHANGE, TYPE=CONTACT TO REMOVE THE *CONTACT 
             PAIR DURING THE STEP OR REMOVE IT FROM MODEL DATA.

 ***WARNING: THE *CONTACT PAIR SLAVE SURFACE ASSEMBLY_NDE-12345-OUT_CNS_ AND 
             THE *TIE SLAVE SURFACE ASSEMBLY_WAIST-MIDDLE-1_SET-FIX_CNS_ 
             INTERSECT EACH OTHER AT NODE 83 INSTANCE WAIST-MIDDLE-1. THE TWO 
             PAIRS WITH MENTIONED SLAVE SURFACES SHOULD NOT BE SIMULTANEOUSLY 
             PRESENT IN A STEP BECAUSE OF POSSIBLE CONVERGENCE PROBLEMS. IF ALL 
             SUCH NODES ARE IN CONTACT DURING THE ANALYSIS, OVERCONSTRAINTS 
             WILL OCCUR. USE *MODEL CHANGE, TYPE=CONTACT TO REMOVE THE *CONTACT 
             PAIR DURING THE STEP OR REMOVE IT FROM MODEL DATA.

 ***WARNING: THE *CONTACT PAIR SLAVE SURFACE ASSEMBLY_NDE-12345-OUT_CNS_ AND 
             THE *TIE SLAVE SURFACE ASSEMBLY_WAIST-MIDDLE-1_SET-FIX_CNS_ 
             INTERSECT EACH OTHER AT NODE 83 INSTANCE WAIST-MIDDLE-1. THE TWO 
             PAIRS WITH MENTIONED SLAVE SURFACES SHOULD NOT BE SIMULTANEOUSLY 
             PRESENT IN A STEP BECAUSE OF POSSIBLE CONVERGENCE PROBLEMS. IF ALL 
             SUCH NODES ARE IN CONTACT DURING THE ANALYSIS, OVERCONSTRAINTS 
             WILL OCCUR. USE *MODEL CHANGE, TYPE=CONTACT TO REMOVE THE *CONTACT 
             PAIR DURING THE STEP OR REMOVE IT FROM MODEL DATA.

 ***WARNING: THE *CONTACT PAIR SLAVE SURFACE ASSEMBLY_NDE-12345-OUT_CNS_ AND 
             THE *TIE SLAVE SURFACE ASSEMBLY_WAIST-MIDDLE-1_SET-FIX_CNS_ 
             INTERSECT EACH OTHER AT NODE 84 INSTANCE WAIST-MIDDLE-1. THE TWO 
             PAIRS WITH MENTIONED SLAVE SURFACES SHOULD NOT BE SIMULTANEOUSLY 
             PRESENT IN A STEP BECAUSE OF POSSIBLE CONVERGENCE PROBLEMS. IF ALL 
             SUCH NODES ARE IN CONTACT DURING THE ANALYSIS, OVERCONSTRAINTS 
             WILL OCCUR. USE *MODEL CHANGE, TYPE=CONTACT TO REMOVE THE *CONTACT 
             PAIR DURING THE STEP OR REMOVE IT FROM MODEL DATA.

 ***WARNING: THE *CONTACT PAIR SLAVE SURFACE ASSEMBLY_NDE-12345-OUT_CNS_ AND 
             THE *TIE SLAVE SURFACE ASSEMBLY_WAIST-MIDDLE-1_SET-FIX_CNS_ 
             INTERSECT EACH OTHER AT NODE 84 INSTANCE WAIST-MIDDLE-1. THE TWO 
             PAIRS WITH MENTIONED SLAVE SURFACES SHOULD NOT BE SIMULTANEOUSLY 
             PRESENT IN A STEP BECAUSE OF POSSIBLE CONVERGENCE PROBLEMS. IF ALL 
             SUCH NODES ARE IN CONTACT DURING THE ANALYSIS, OVERCONSTRAINTS 
             WILL OCCUR. USE *MODEL CHANGE, TYPE=CONTACT TO REMOVE THE *CONTACT 
             PAIR DURING THE STEP OR REMOVE IT FROM MODEL DATA.

 ***WARNING: THE *CONTACT PAIR SLAVE SURFACE ASSEMBLY_NDE-12345-OUT_CNS_ AND 
             THE *TIE SLAVE SURFACE ASSEMBLY_WAIST-MIDDLE-1_SET-FIX_CNS_ 
             INTERSECT EACH OTHER AT NODE 85 INSTANCE WAIST-MIDDLE-1. THE TWO 
             PAIRS WITH MENTIONED SLAVE SURFACES SHOULD NOT BE SIMULTANEOUSLY 
             PRESENT IN A STEP BECAUSE OF POSSIBLE CONVERGENCE PROBLEMS. IF ALL 
             SUCH NODES ARE IN CONTACT DURING THE ANALYSIS, OVERCONSTRAINTS 
             WILL OCCUR. USE *MODEL CHANGE, TYPE=CONTACT TO REMOVE THE *CONTACT 
             PAIR DURING THE STEP OR REMOVE IT FROM MODEL DATA.

 ***WARNING: THE *CONTACT PAIR SLAVE SURFACE ASSEMBLY_NDE-12345-OUT_CNS_ AND 
             THE *TIE SLAVE SURFACE ASSEMBLY_WAIST-MIDDLE-1_SET-FIX_CNS_ 
             INTERSECT EACH OTHER AT NODE 85 INSTANCE WAIST-MIDDLE-1. THE TWO 
             PAIRS WITH MENTIONED SLAVE SURFACES SHOULD NOT BE SIMULTANEOUSLY 
             PRESENT IN A STEP BECAUSE OF POSSIBLE CONVERGENCE PROBLEMS. IF ALL 
             SUCH NODES ARE IN CONTACT DURING THE ANALYSIS, OVERCONSTRAINTS 
             WILL OCCUR. USE *MODEL CHANGE, TYPE=CONTACT TO REMOVE THE *CONTACT 
             PAIR DURING THE STEP OR REMOVE IT FROM MODEL DATA.

 ***WARNING: THE *CONTACT PAIR SLAVE SURFACE ASSEMBLY_NDE-12345-OUT_CNS_ AND 
             THE *TIE SLAVE SURFACE ASSEMBLY_WAIST-MIDDLE-1_SET-FIX_CNS_ 
             INTERSECT EACH OTHER AT NODE 86 INSTANCE WAIST-MIDDLE-1. THE TWO 
             PAIRS WITH MENTIONED SLAVE SURFACES SHOULD NOT BE SIMULTANEOUSLY 
             PRESENT IN A STEP BECAUSE OF POSSIBLE CONVERGENCE PROBLEMS. IF ALL 
             SUCH NODES ARE IN CONTACT DURING THE ANALYSIS, OVERCONSTRAINTS 
             WILL OCCUR. USE *MODEL CHANGE, TYPE=CONTACT TO REMOVE THE *CONTACT 
             PAIR DURING THE STEP OR REMOVE IT FROM MODEL DATA.

 ***WARNING: THE *CONTACT PAIR SLAVE SURFACE ASSEMBLY_NDE-12345-OUT_CNS_ AND 
             THE *TIE SLAVE SURFACE ASSEMBLY_WAIST-MIDDLE-1_SET-FIX_CNS_ 
             INTERSECT EACH OTHER AT NODE 86 INSTANCE WAIST-MIDDLE-1. THE TWO 
             PAIRS WITH MENTIONED SLAVE SURFACES SHOULD NOT BE SIMULTANEOUSLY 
             PRESENT IN A STEP BECAUSE OF POSSIBLE CONVERGENCE PROBLEMS. IF ALL 
             SUCH NODES ARE IN CONTACT DURING THE ANALYSIS, OVERCONSTRAINTS 
             WILL OCCUR. USE *MODEL CHANGE, TYPE=CONTACT TO REMOVE THE *CONTACT 
             PAIR DURING THE STEP OR REMOVE IT FROM MODEL DATA.

 ***WARNING: THE *CONTACT PAIR SLAVE SURFACE ASSEMBLY_NDE-12345-OUT_CNS_ AND 
             THE *TIE SLAVE SURFACE ASSEMBLY_WAIST-MIDDLE-1_SET-FIX_CNS_ 
             INTERSECT EACH OTHER AT NODE 87 INSTANCE WAIST-MIDDLE-1. THE TWO 
             PAIRS WITH MENTIONED SLAVE SURFACES SHOULD NOT BE SIMULTANEOUSLY 
             PRESENT IN A STEP BECAUSE OF POSSIBLE CONVERGENCE PROBLEMS. IF ALL 
             SUCH NODES ARE IN CONTACT DURING THE ANALYSIS, OVERCONSTRAINTS 
             WILL OCCUR. USE *MODEL CHANGE, TYPE=CONTACT TO REMOVE THE *CONTACT 
             PAIR DURING THE STEP OR REMOVE IT FROM MODEL DATA.

 ***WARNING: THE *CONTACT PAIR SLAVE SURFACE ASSEMBLY_NDE-12345-OUT_CNS_ AND 
             THE *TIE SLAVE SURFACE ASSEMBLY_WAIST-MIDDLE-1_SET-FIX_CNS_ 
             INTERSECT EACH OTHER AT NODE 87 INSTANCE WAIST-MIDDLE-1. THE TWO 
             PAIRS WITH MENTIONED SLAVE SURFACES SHOULD NOT BE SIMULTANEOUSLY 
             PRESENT IN A STEP BECAUSE OF POSSIBLE CONVERGENCE PROBLEMS. IF ALL 
             SUCH NODES ARE IN CONTACT DURING THE ANALYSIS, OVERCONSTRAINTS 
             WILL OCCUR. USE *MODEL CHANGE, TYPE=CONTACT TO REMOVE THE *CONTACT 
             PAIR DURING THE STEP OR REMOVE IT FROM MODEL DATA.

 ***WARNING: THE *CONTACT PAIR SLAVE SURFACE ASSEMBLY_NDE-12345-OUT_CNS_ AND 
             THE *TIE SLAVE SURFACE ASSEMBLY_WAIST-MIDDLE-1_SET-FIX_CNS_ 
             INTERSECT EACH OTHER AT NODE 96 INSTANCE WAIST-MIDDLE-1. THE TWO 
             PAIRS WITH MENTIONED SLAVE SURFACES SHOULD NOT BE SIMULTANEOUSLY 
             PRESENT IN A STEP BECAUSE OF POSSIBLE CONVERGENCE PROBLEMS. IF ALL 
             SUCH NODES ARE IN CONTACT DURING THE ANALYSIS, OVERCONSTRAINTS 
             WILL OCCUR. USE *MODEL CHANGE, TYPE=CONTACT TO REMOVE THE *CONTACT 
             PAIR DURING THE STEP OR REMOVE IT FROM MODEL DATA.

 ***WARNING: THE *CONTACT PAIR SLAVE SURFACE ASSEMBLY_NDE-12345-OUT_CNS_ AND 
             THE *TIE SLAVE SURFACE ASSEMBLY_WAIST-MIDDLE-1_SET-FIX_CNS_ 
             INTERSECT EACH OTHER AT NODE 96 INSTANCE WAIST-MIDDLE-1. THE TWO 
             PAIRS WITH MENTIONED SLAVE SURFACES SHOULD NOT BE SIMULTANEOUSLY 
             PRESENT IN A STEP BECAUSE OF POSSIBLE CONVERGENCE PROBLEMS. IF ALL 
             SUCH NODES ARE IN CONTACT DURING THE ANALYSIS, OVERCONSTRAINTS 
             WILL OCCUR. USE *MODEL CHANGE, TYPE=CONTACT TO REMOVE THE *CONTACT 
             PAIR DURING THE STEP OR REMOVE IT FROM MODEL DATA.

 ***WARNING: THE *CONTACT PAIR SLAVE SURFACE ASSEMBLY_NDE-12345-OUT_CNS_ AND 
             THE *TIE SLAVE SURFACE ASSEMBLY_WAIST-MIDDLE-1_SET-FIX_CNS_ 
             INTERSECT EACH OTHER AT NODE 97 INSTANCE WAIST-MIDDLE-1. THE TWO 
             PAIRS WITH MENTIONED SLAVE SURFACES SHOULD NOT BE SIMULTANEOUSLY 
             PRESENT IN A STEP BECAUSE OF POSSIBLE CONVERGENCE PROBLEMS. IF ALL 
             SUCH NODES ARE IN CONTACT DURING THE ANALYSIS, OVERCONSTRAINTS 
             WILL OCCUR. USE *MODEL CHANGE, TYPE=CONTACT TO REMOVE THE *CONTACT 
             PAIR DURING THE STEP OR REMOVE IT FROM MODEL DATA.

 ***WARNING: THE *CONTACT PAIR SLAVE SURFACE ASSEMBLY_NDE-12345-OUT_CNS_ AND 
             THE *TIE SLAVE SURFACE ASSEMBLY_WAIST-MIDDLE-1_SET-FIX_CNS_ 
             INTERSECT EACH OTHER AT NODE 97 INSTANCE WAIST-MIDDLE-1. THE TWO 
             PAIRS WITH MENTIONED SLAVE SURFACES SHOULD NOT BE SIMULTANEOUSLY 
             PRESENT IN A STEP BECAUSE OF POSSIBLE CONVERGENCE PROBLEMS. IF ALL 
             SUCH NODES ARE IN CONTACT DURING THE ANALYSIS, OVERCONSTRAINTS 
             WILL OCCUR. USE *MODEL CHANGE, TYPE=CONTACT TO REMOVE THE *CONTACT 
             PAIR DURING THE STEP OR REMOVE IT FROM MODEL DATA.

 ***WARNING: THE *CONTACT PAIR SLAVE SURFACE ASSEMBLY_NDE-12345-OUT_CNS_ AND 
             THE *TIE SLAVE SURFACE ASSEMBLY_WAIST-MIDDLE-1_SET-FIX_CNS_ 
             INTERSECT EACH OTHER AT NODE 98 INSTANCE WAIST-MIDDLE-1. THE TWO 
             PAIRS WITH MENTIONED SLAVE SURFACES SHOULD NOT BE SIMULTANEOUSLY 
             PRESENT IN A STEP BECAUSE OF POSSIBLE CONVERGENCE PROBLEMS. IF ALL 
             SUCH NODES ARE IN CONTACT DURING THE ANALYSIS, OVERCONSTRAINTS 
             WILL OCCUR. USE *MODEL CHANGE, TYPE=CONTACT TO REMOVE THE *CONTACT 
             PAIR DURING THE STEP OR REMOVE IT FROM MODEL DATA.

 ***WARNING: THE *CONTACT PAIR SLAVE SURFACE ASSEMBLY_NDE-12345-OUT_CNS_ AND 
             THE *TIE SLAVE SURFACE ASSEMBLY_WAIST-MIDDLE-1_SET-FIX_CNS_ 
             INTERSECT EACH OTHER AT NODE 98 INSTANCE WAIST-MIDDLE-1. THE TWO 
             PAIRS WITH MENTIONED SLAVE SURFACES SHOULD NOT BE SIMULTANEOUSLY 
             PRESENT IN A STEP BECAUSE OF POSSIBLE CONVERGENCE PROBLEMS. IF ALL 
             SUCH NODES ARE IN CONTACT DURING THE ANALYSIS, OVERCONSTRAINTS 
             WILL OCCUR. USE *MODEL CHANGE, TYPE=CONTACT TO REMOVE THE *CONTACT 
             PAIR DURING THE STEP OR REMOVE IT FROM MODEL DATA.

 ***WARNING: THE *CONTACT PAIR SLAVE SURFACE ASSEMBLY_NDE-12345-OUT_CNS_ AND 
             THE *TIE SLAVE SURFACE ASSEMBLY_WAIST-MIDDLE-1_SET-FIX_CNS_ 
             INTERSECT EACH OTHER AT NODE 142 INSTANCE WAIST-MIDDLE-1. THE TWO 
             PAIRS WITH MENTIONED SLAVE SURFACES SHOULD NOT BE SIMULTANEOUSLY 
             PRESENT IN A STEP BECAUSE OF POSSIBLE CONVERGENCE PROBLEMS. IF ALL 
             SUCH NODES ARE IN CONTACT DURING THE ANALYSIS, OVERCONSTRAINTS 
             WILL OCCUR. USE *MODEL CHANGE, TYPE=CONTACT TO REMOVE THE *CONTACT 
             PAIR DURING THE STEP OR REMOVE IT FROM MODEL DATA.

 ***WARNING: THE *CONTACT PAIR SLAVE SURFACE ASSEMBLY_NDE-12345-OUT_CNS_ AND 
             THE *TIE SLAVE SURFACE ASSEMBLY_WAIST-MIDDLE-1_SET-FIX_CNS_ 
             INTERSECT EACH OTHER AT NODE 142 INSTANCE WAIST-MIDDLE-1. THE TWO 
             PAIRS WITH MENTIONED SLAVE SURFACES SHOULD NOT BE SIMULTANEOUSLY 
             PRESENT IN A STEP BECAUSE OF POSSIBLE CONVERGENCE PROBLEMS. IF ALL 
             SUCH NODES ARE IN CONTACT DURING THE ANALYSIS, OVERCONSTRAINTS 
             WILL OCCUR. USE *MODEL CHANGE, TYPE=CONTACT TO REMOVE THE *CONTACT 
             PAIR DURING THE STEP OR REMOVE IT FROM MODEL DATA.

 ***WARNING: THE *CONTACT PAIR SLAVE SURFACE ASSEMBLY_NDE-12345-OUT_CNS_ AND 
             THE *TIE SLAVE SURFACE ASSEMBLY_WAIST-MIDDLE-1_SET-FIX_CNS_ 
             INTERSECT EACH OTHER AT NODE 143 INSTANCE WAIST-MIDDLE-1. THE TWO 
             PAIRS WITH MENTIONED SLAVE SURFACES SHOULD NOT BE SIMULTANEOUSLY 
             PRESENT IN A STEP BECAUSE OF POSSIBLE CONVERGENCE PROBLEMS. IF ALL 
             SUCH NODES ARE IN CONTACT DURING THE ANALYSIS, OVERCONSTRAINTS 
             WILL OCCUR. USE *MODEL CHANGE, TYPE=CONTACT TO REMOVE THE *CONTACT 
             PAIR DURING THE STEP OR REMOVE IT FROM MODEL DATA.

 ***WARNING: THE *CONTACT PAIR SLAVE SURFACE ASSEMBLY_NDE-12345-OUT_CNS_ AND 
             THE *TIE SLAVE SURFACE ASSEMBLY_WAIST-MIDDLE-1_SET-FIX_CNS_ 
             INTERSECT EACH OTHER AT NODE 143 INSTANCE WAIST-MIDDLE-1. THE TWO 
             PAIRS WITH MENTIONED SLAVE SURFACES SHOULD NOT BE SIMULTANEOUSLY 
             PRESENT IN A STEP BECAUSE OF POSSIBLE CONVERGENCE PROBLEMS. IF ALL 
             SUCH NODES ARE IN CONTACT DURING THE ANALYSIS, OVERCONSTRAINTS 
             WILL OCCUR. USE *MODEL CHANGE, TYPE=CONTACT TO REMOVE THE *CONTACT 
             PAIR DURING THE STEP OR REMOVE IT FROM MODEL DATA.

 ***WARNING: THE *CONTACT PAIR SLAVE SURFACE ASSEMBLY_NDE-12345-OUT_CNS_ AND 
             THE *TIE SLAVE SURFACE ASSEMBLY_WAIST-MIDDLE-1_SET-FIX_CNS_ 
             INTERSECT EACH OTHER AT NODE 152 INSTANCE WAIST-MIDDLE-1. THE TWO 
             PAIRS WITH MENTIONED SLAVE SURFACES SHOULD NOT BE SIMULTANEOUSLY 
             PRESENT IN A STEP BECAUSE OF POSSIBLE CONVERGENCE PROBLEMS. IF ALL 
             SUCH NODES ARE IN CONTACT DURING THE ANALYSIS, OVERCONSTRAINTS 
             WILL OCCUR. USE *MODEL CHANGE, TYPE=CONTACT TO REMOVE THE *CONTACT 
             PAIR DURING THE STEP OR REMOVE IT FROM MODEL DATA.

 ***WARNING: THE *CONTACT PAIR SLAVE SURFACE ASSEMBLY_NDE-12345-OUT_CNS_ AND 
             THE *TIE SLAVE SURFACE ASSEMBLY_WAIST-MIDDLE-1_SET-FIX_CNS_ 
             INTERSECT EACH OTHER AT NODE 152 INSTANCE WAIST-MIDDLE-1. THE TWO 
             PAIRS WITH MENTIONED SLAVE SURFACES SHOULD NOT BE SIMULTANEOUSLY 
             PRESENT IN A STEP BECAUSE OF POSSIBLE CONVERGENCE PROBLEMS. IF ALL 
             SUCH NODES ARE IN CONTACT DURING THE ANALYSIS, OVERCONSTRAINTS 
             WILL OCCUR. USE *MODEL CHANGE, TYPE=CONTACT TO REMOVE THE *CONTACT 
             PAIR DURING THE STEP OR REMOVE IT FROM MODEL DATA.

 ***WARNING: THE *CONTACT PAIR SLAVE SURFACE ASSEMBLY_NDE-12345-OUT_CNS_ AND 
             THE *TIE SLAVE SURFACE ASSEMBLY_WAIST-MIDDLE-1_SET-FIX_CNS_ 
             INTERSECT EACH OTHER AT NODE 153 INSTANCE WAIST-MIDDLE-1. THE TWO 
             PAIRS WITH MENTIONED SLAVE SURFACES SHOULD NOT BE SIMULTANEOUSLY 
             PRESENT IN A STEP BECAUSE OF POSSIBLE CONVERGENCE PROBLEMS. IF ALL 
             SUCH NODES ARE IN CONTACT DURING THE ANALYSIS, OVERCONSTRAINTS 
             WILL OCCUR. USE *MODEL CHANGE, TYPE=CONTACT TO REMOVE THE *CONTACT 
             PAIR DURING THE STEP OR REMOVE IT FROM MODEL DATA.

 ***WARNING: THE *CONTACT PAIR SLAVE SURFACE ASSEMBLY_NDE-12345-OUT_CNS_ AND 
             THE *TIE SLAVE SURFACE ASSEMBLY_WAIST-MIDDLE-1_SET-FIX_CNS_ 
             INTERSECT EACH OTHER AT NODE 153 INSTANCE WAIST-MIDDLE-1. THE TWO 
             PAIRS WITH MENTIONED SLAVE SURFACES SHOULD NOT BE SIMULTANEOUSLY 
             PRESENT IN A STEP BECAUSE OF POSSIBLE CONVERGENCE PROBLEMS. IF ALL 
             SUCH NODES ARE IN CONTACT DURING THE ANALYSIS, OVERCONSTRAINTS 
             WILL OCCUR. USE *MODEL CHANGE, TYPE=CONTACT TO REMOVE THE *CONTACT 
             PAIR DURING THE STEP OR REMOVE IT FROM MODEL DATA.

 ***WARNING: THE *CONTACT PAIR SLAVE SURFACE ASSEMBLY_NDE-12345-OUT_CNS_ AND 
             THE *TIE SLAVE SURFACE ASSEMBLY_WAIST-MIDDLE-1_SET-FIX_CNS_ 
             INTERSECT EACH OTHER AT NODE 155 INSTANCE WAIST-MIDDLE-1. THE TWO 
             PAIRS WITH MENTIONED SLAVE SURFACES SHOULD NOT BE SIMULTANEOUSLY 
             PRESENT IN A STEP BECAUSE OF POSSIBLE CONVERGENCE PROBLEMS. IF ALL 
             SUCH NODES ARE IN CONTACT DURING THE ANALYSIS, OVERCONSTRAINTS 
             WILL OCCUR. USE *MODEL CHANGE, TYPE=CONTACT TO REMOVE THE *CONTACT 
             PAIR DURING THE STEP OR REMOVE IT FROM MODEL DATA.

 ***WARNING: THE *CONTACT PAIR SLAVE SURFACE ASSEMBLY_NDE-12345-OUT_CNS_ AND 
             THE *TIE SLAVE SURFACE ASSEMBLY_WAIST-MIDDLE-1_SET-FIX_CNS_ 
             INTERSECT EACH OTHER AT NODE 155 INSTANCE WAIST-MIDDLE-1. THE TWO 
             PAIRS WITH MENTIONED SLAVE SURFACES SHOULD NOT BE SIMULTANEOUSLY 
             PRESENT IN A STEP BECAUSE OF POSSIBLE CONVERGENCE PROBLEMS. IF ALL 
             SUCH NODES ARE IN CONTACT DURING THE ANALYSIS, OVERCONSTRAINTS 
             WILL OCCUR. USE *MODEL CHANGE, TYPE=CONTACT TO REMOVE THE *CONTACT 
             PAIR DURING THE STEP OR REMOVE IT FROM MODEL DATA.

 ***WARNING: THE *CONTACT PAIR SLAVE SURFACE ASSEMBLY_NDE-12345-OUT_CNS_ AND 
             THE *TIE SLAVE SURFACE ASSEMBLY_WAIST-MIDDLE-1_SET-FIX_CNS_ 
             INTERSECT EACH OTHER AT NODE 156 INSTANCE WAIST-MIDDLE-1. THE TWO 
             PAIRS WITH MENTIONED SLAVE SURFACES SHOULD NOT BE SIMULTANEOUSLY 
             PRESENT IN A STEP BECAUSE OF POSSIBLE CONVERGENCE PROBLEMS. IF ALL 
             SUCH NODES ARE IN CONTACT DURING THE ANALYSIS, OVERCONSTRAINTS 
             WILL OCCUR. USE *MODEL CHANGE, TYPE=CONTACT TO REMOVE THE *CONTACT 
             PAIR DURING THE STEP OR REMOVE IT FROM MODEL DATA.

 ***WARNING: THE *CONTACT PAIR SLAVE SURFACE ASSEMBLY_NDE-12345-OUT_CNS_ AND 
             THE *TIE SLAVE SURFACE ASSEMBLY_WAIST-MIDDLE-1_SET-FIX_CNS_ 
             INTERSECT EACH OTHER AT NODE 156 INSTANCE WAIST-MIDDLE-1. THE TWO 
             PAIRS WITH MENTIONED SLAVE SURFACES SHOULD NOT BE SIMULTANEOUSLY 
             PRESENT IN A STEP BECAUSE OF POSSIBLE CONVERGENCE PROBLEMS. IF ALL 
             SUCH NODES ARE IN CONTACT DURING THE ANALYSIS, OVERCONSTRAINTS 
             WILL OCCUR. USE *MODEL CHANGE, TYPE=CONTACT TO REMOVE THE *CONTACT 
             PAIR DURING THE STEP OR REMOVE IT FROM MODEL DATA.

 ***WARNING: THE *CONTACT PAIR SLAVE SURFACE ASSEMBLY_NDE-12345-OUT_CNS_ AND 
             THE *TIE SLAVE SURFACE ASSEMBLY_WAIST-MIDDLE-1_SET-FIX_CNS_ 
             INTERSECT EACH OTHER AT NODE 160 INSTANCE WAIST-MIDDLE-1. THE TWO 
             PAIRS WITH MENTIONED SLAVE SURFACES SHOULD NOT BE SIMULTANEOUSLY 
             PRESENT IN A STEP BECAUSE OF POSSIBLE CONVERGENCE PROBLEMS. IF ALL 
             SUCH NODES ARE IN CONTACT DURING THE ANALYSIS, OVERCONSTRAINTS 
             WILL OCCUR. USE *MODEL CHANGE, TYPE=CONTACT TO REMOVE THE *CONTACT 
             PAIR DURING THE STEP OR REMOVE IT FROM MODEL DATA.

 ***WARNING: THE *CONTACT PAIR SLAVE SURFACE ASSEMBLY_NDE-12345-OUT_CNS_ AND 
             THE *TIE SLAVE SURFACE ASSEMBLY_WAIST-MIDDLE-1_SET-FIX_CNS_ 
             INTERSECT EACH OTHER AT NODE 160 INSTANCE WAIST-MIDDLE-1. THE TWO 
             PAIRS WITH MENTIONED SLAVE SURFACES SHOULD NOT BE SIMULTANEOUSLY 
             PRESENT IN A STEP BECAUSE OF POSSIBLE CONVERGENCE PROBLEMS. IF ALL 
             SUCH NODES ARE IN CONTACT DURING THE ANALYSIS, OVERCONSTRAINTS 
             WILL OCCUR. USE *MODEL CHANGE, TYPE=CONTACT TO REMOVE THE *CONTACT 
             PAIR DURING THE STEP OR REMOVE IT FROM MODEL DATA.

 ***WARNING: THE *CONTACT PAIR SLAVE SURFACE ASSEMBLY_NDE-12345-OUT_CNS_ AND 
             THE *TIE SLAVE SURFACE ASSEMBLY_WAIST-MIDDLE-1_SET-FIX_CNS_ 
             INTERSECT EACH OTHER AT NODE 161 INSTANCE WAIST-MIDDLE-1. THE TWO 
             PAIRS WITH MENTIONED SLAVE SURFACES SHOULD NOT BE SIMULTANEOUSLY 
             PRESENT IN A STEP BECAUSE OF POSSIBLE CONVERGENCE PROBLEMS. IF ALL 
[...]
             PRESENT IN A STEP BECAUSE OF POSSIBLE CONVERGENCE PROBLEMS. IF ALL 
             SUCH NODES ARE IN CONTACT DURING THE ANALYSIS, OVERCONSTRAINTS 
             WILL OCCUR. USE *MODEL CHANGE, TYPE=CONTACT TO REMOVE THE *CONTACT 
             PAIR DURING THE STEP OR REMOVE IT FROM MODEL DATA.

 ***WARNING: THE *CONTACT PAIR SLAVE SURFACE ASSEMBLY_NDE-12345-OUT_CNS_ AND 
             THE *TIE SLAVE SURFACE ASSEMBLY_WAIST-MIDDLE-1_SET-FIX_CNS_ 
             INTERSECT EACH OTHER AT NODE 675 INSTANCE WAIST-MIDDLE-1. THE TWO 
             PAIRS WITH MENTIONED SLAVE SURFACES SHOULD NOT BE SIMULTANEOUSLY 
             PRESENT IN A STEP BECAUSE OF POSSIBLE CONVERGENCE PROBLEMS. IF ALL 
             SUCH NODES ARE IN CONTACT DURING THE ANALYSIS, OVERCONSTRAINTS 
             WILL OCCUR. USE *MODEL CHANGE, TYPE=CONTACT TO REMOVE THE *CONTACT 
             PAIR DURING THE STEP OR REMOVE IT FROM MODEL DATA.

 ***WARNING: THE *CONTACT PAIR SLAVE SURFACE ASSEMBLY_NDE-12345-OUT_CNS_ AND 
             THE *TIE SLAVE SURFACE ASSEMBLY_WAIST-MIDDLE-1_SET-FIX_CNS_ 
             INTERSECT EACH OTHER AT NODE 675 INSTANCE WAIST-MIDDLE-1. THE TWO 
             PAIRS WITH MENTIONED SLAVE SURFACES SHOULD NOT BE SIMULTANEOUSLY 
             PRESENT IN A STEP BECAUSE OF POSSIBLE CONVERGENCE PROBLEMS. IF ALL 
             SUCH NODES ARE IN CONTACT DURING THE ANALYSIS, OVERCONSTRAINTS 
             WILL OCCUR. USE *MODEL CHANGE, TYPE=CONTACT TO REMOVE THE *CONTACT 
             PAIR DURING THE STEP OR REMOVE IT FROM MODEL DATA.

 ***WARNING: THE *CONTACT PAIR SLAVE SURFACE ASSEMBLY_NDE-12345-OUT_CNS_ AND 
             THE *TIE SLAVE SURFACE ASSEMBLY_WAIST-MIDDLE-1_SET-FIX_CNS_ 
             INTERSECT EACH OTHER AT NODE 676 INSTANCE WAIST-MIDDLE-1. THE TWO 
             PAIRS WITH MENTIONED SLAVE SURFACES SHOULD NOT BE SIMULTANEOUSLY 
             PRESENT IN A STEP BECAUSE OF POSSIBLE CONVERGENCE PROBLEMS. IF ALL 
             SUCH NODES ARE IN CONTACT DURING THE ANALYSIS, OVERCONSTRAINTS 
             WILL OCCUR. USE *MODEL CHANGE, TYPE=CONTACT TO REMOVE THE *CONTACT 
             PAIR DURING THE STEP OR REMOVE IT FROM MODEL DATA.

 ***WARNING: THE *CONTACT PAIR SLAVE SURFACE ASSEMBLY_NDE-12345-OUT_CNS_ AND 
             THE *TIE SLAVE SURFACE ASSEMBLY_WAIST-MIDDLE-1_SET-FIX_CNS_ 
             INTERSECT EACH OTHER AT NODE 676 INSTANCE WAIST-MIDDLE-1. THE TWO 
             PAIRS WITH MENTIONED SLAVE SURFACES SHOULD NOT BE SIMULTANEOUSLY 
             PRESENT IN A STEP BECAUSE OF POSSIBLE CONVERGENCE PROBLEMS. IF ALL 
             SUCH NODES ARE IN CONTACT DURING THE ANALYSIS, OVERCONSTRAINTS 
             WILL OCCUR. USE *MODEL CHANGE, TYPE=CONTACT TO REMOVE THE *CONTACT 
             PAIR DURING THE STEP OR REMOVE IT FROM MODEL DATA.

 ***WARNING: THE *CONTACT PAIR SLAVE SURFACE ASSEMBLY_NDE-12345-OUT_CNS_ AND 
             THE *TIE SLAVE SURFACE ASSEMBLY_WAIST-MIDDLE-1_SET-FIX_CNS_ 
             INTERSECT EACH OTHER AT NODE 677 INSTANCE WAIST-MIDDLE-1. THE TWO 
             PAIRS WITH MENTIONED SLAVE SURFACES SHOULD NOT BE SIMULTANEOUSLY 
             PRESENT IN A STEP BECAUSE OF POSSIBLE CONVERGENCE PROBLEMS. IF ALL 
             SUCH NODES ARE IN CONTACT DURING THE ANALYSIS, OVERCONSTRAINTS 
             WILL OCCUR. USE *MODEL CHANGE, TYPE=CONTACT TO REMOVE THE *CONTACT 
             PAIR DURING THE STEP OR REMOVE IT FROM MODEL DATA.

 ***WARNING: THE *CONTACT PAIR SLAVE SURFACE ASSEMBLY_NDE-12345-OUT_CNS_ AND 
             THE *TIE SLAVE SURFACE ASSEMBLY_WAIST-MIDDLE-1_SET-FIX_CNS_ 
             INTERSECT EACH OTHER AT NODE 677 INSTANCE WAIST-MIDDLE-1. THE TWO 
             PAIRS WITH MENTIONED SLAVE SURFACES SHOULD NOT BE SIMULTANEOUSLY 
             PRESENT IN A STEP BECAUSE OF POSSIBLE CONVERGENCE PROBLEMS. IF ALL 
             SUCH NODES ARE IN CONTACT DURING THE ANALYSIS, OVERCONSTRAINTS 
             WILL OCCUR. USE *MODEL CHANGE, TYPE=CONTACT TO REMOVE THE *CONTACT 
             PAIR DURING THE STEP OR REMOVE IT FROM MODEL DATA.

 ***NOTE: THE ROTATIONAL DEGREES OF FREEDOM OF THE NODES THAT CONSTITUTE THE 
          SURFACES WILL NOT BE CONSTRAINED BETWEEN THE SLAVE AND MASTER PAIR 
          (ASSEMBLY_NDE-35-OUT_CNS_, ASSEMBLY_WAIST-MIDDLE-1_SURF-INN).

 ***NOTE: ROTATIONAL DEGREES OF FREEDOM WILL NOT BE CONSTRAINED BETWEEN THE 
          SLAVE AND MASTER PAIR (ASSEMBLY_NDE-35-OUT_CNS_, 
          ASSEMBLY_WAIST-MIDDLE-1_SURF-INN).

 ***NOTE: THE ROTATIONAL DEGREES OF FREEDOM OF THE NODES THAT CONSTITUTE THE 
          SURFACES WILL NOT BE CONSTRAINED BETWEEN THE SLAVE AND MASTER PAIR 
          (ASSEMBLY_NDE-12345-OUT_CNS_, ASSEMBLY_MEMBRANE-1_SURF-INN).

 ***NOTE: ROTATIONAL DEGREES OF FREEDOM WILL NOT BE CONSTRAINED BETWEEN THE 
          SLAVE AND MASTER PAIR (ASSEMBLY_NDE-12345-OUT_CNS_, 
          ASSEMBLY_MEMBRANE-1_SURF-INN).
  *surfaceinteraction, name=INTPROP-1
  *surfaceinteraction, name=INTPROP-2
  *contactpair, interaction=INTPROP-2, type=SURFACETOSURFACE

 ***NOTE: THE ROTATIONAL DEGREES OF FREEDOM OF THE NODES THAT CONSTITUTE THE 
          SURFACES WILL NOT BE CONSTRAINED BETWEEN THE SLAVE AND MASTER PAIR 
          (ASSEMBLY_NDE-35-OUT_CNS_, ASSEMBLY_WAIST-MIDDLE-1_SURF-INN).

 ***NOTE: ROTATIONAL DEGREES OF FREEDOM WILL NOT BE CONSTRAINED BETWEEN THE 
          SLAVE AND MASTER PAIR (ASSEMBLY_NDE-35-OUT_CNS_, 
          ASSEMBLY_WAIST-MIDDLE-1_SURF-INN).
  *contactpair, interaction=INTPROP-2, type=SURFACETOSURFACE

 ***NOTE: THE ROTATIONAL DEGREES OF FREEDOM OF THE NODES THAT CONSTITUTE THE 
          SURFACES WILL NOT BE CONSTRAINED BETWEEN THE SLAVE AND MASTER PAIR 
          (ASSEMBLY_NDE-12345-OUT_CNS_, ASSEMBLY_MEMBRANE-1_SURF-INN).

 ***NOTE: ROTATIONAL DEGREES OF FREEDOM WILL NOT BE CONSTRAINED BETWEEN THE 
          SLAVE AND MASTER PAIR (ASSEMBLY_NDE-12345-OUT_CNS_, 
          ASSEMBLY_MEMBRANE-1_SURF-INN).
  *tie, name=ASSEMBLY_CONSTRAINT-TIE, positiontolerance=0.01, adjust=YES
  *output, field, variable=PRESELECT
  *output, history, variable=PRESELECT
  *output, field, variable=PRESELECT
  *output, history, variable=PRESELECT
  *output, field, variable=PRESELECT
  *output, history, variable=PRESELECT
  *output, field, variable=PRESELECT
  *output, history, variable=PRESELECT
  *output, field, variable=PRESELECT
  *output, history, variable=PRESELECT
  *output, field, variable=PRESELECT
  *output, history, variable=PRESELECT
  *output, field, variable=PRESELECT
  *output, history, variable=PRESELECT
  *output, field, variable=PRESELECT
  *output, history, variable=PRESELECT
  *output, field, variable=PRESELECT
  *output, history, variable=PRESELECT
  *output, field, variable=PRESELECT
  *output, history, variable=PRESELECT
  *output, field, variable=PRESELECT
  *output, history, variable=PRESELECT
  *output, field, variable=PRESELECT
  *output, history, variable=PRESELECT
  *output, field, variable=PRESELECT
  *output, history, variable=PRESELECT
  *output, field, variable=PRESELECT
  *output, history, variable=PRESELECT
  *output, field, variable=PRESELECT
  *output, history, variable=PRESELECT
  *amplitude, name=AMP-1
  *amplitude, name=AMP-2
  *Step, name=Step-1, nlgeom=YES, inc=1000
  *output, field, variable=PRESELECT
  *output, history, variable=PRESELECT
  *Step, name=Step-2, nlgeom=YES, inc=1000
  *output, field, variable=PRESELECT
  *output, history, variable=PRESELECT
  *Step, name=Step-3, nlgeom=YES, inc=1000
  *output, field, variable=PRESELECT
  *output, history, variable=PRESELECT
  *Step, name=Step-4, nlgeom=YES, inc=1000
  *output, field, variable=PRESELECT
  *output, history, variable=PRESELECT
  *Step, name=Step-5, nlgeom=YES, inc=1000
  *output, field, variable=PRESELECT
  *output, history, variable=PRESELECT
  *Step, name=Step-1, nlgeom=YES, inc=1000
  *Step, name=Step-2, nlgeom=YES, inc=1000
  *Step, name=Step-3, nlgeom=YES, inc=1000
  *Step, name=Step-4, nlgeom=YES, inc=1000
  *Step, name=Step-5, nlgeom=YES, inc=1000
  *Step, name=Step-1, nlgeom=YES, inc=1000
  *static
  *solutiontechnique, type=QUASI-NEWTON
  *dsload, amplitude=AMP-1
  *dsload, amplitude=AMP-1
  *output, field, variable=PRESELECT
  *output, history, variable=PRESELECT
  *endstep
  *Step, name=Step-2, nlgeom=YES, inc=1000
  *static
  *solutiontechnique, type=QUASI-NEWTON
  *dsload
  *output, field, variable=PRESELECT
  *output, history, variable=PRESELECT
  *endstep
  *Step, name=Step-3, nlgeom=YES, inc=1000
  *static
  *dsload, amplitude=AMP-2
  *output, field, variable=PRESELECT
  *output, history, variable=PRESELECT
  *endstep
  *Step, name=Step-4, nlgeom=YES, inc=1000
  *static
  *dsload, amplitude=AMP-2
  *output, field, variable=PRESELECT
  *output, history, variable=PRESELECT
  *endstep
  *Step, name=Step-5, nlgeom=YES, inc=1000
  *static
  *dsload
  *dsload
  *output, field, variable=PRESELECT
  *output, history, variable=PRESELECT
  *endstep
  *boundary
  *Step, name=Step-1, nlgeom=YES, inc=1000
  *static
  *endstep
  *Step, name=Step-2, nlgeom=YES, inc=1000
  *static
  *endstep
  *Step, name=Step-3, nlgeom=YES, inc=1000
  *static
  *endstep
  *Step, name=Step-4, nlgeom=YES, inc=1000
  *static
  *endstep
  *Step, name=Step-5, nlgeom=YES, inc=1000
  *static
  *endstep

 ***WARNING: THE SPECIFIED HYPERELASTIC MATERIAL IS UNSTABLE. --- MORE 
             INFORMATION CAN BE OBTAINED BY SETTING *PREPRINT, MODEL=YES

     - (RAMP) OR (STEP) - INDICATE USE OF DEFAULT AMPLITUDES ASSOCIATED WITH THE STEP

     - (RAMP) OR (STEP) - INDICATE USE OF DEFAULT AMPLITUDES ASSOCIATED WITH THE STEP

     - (RAMP) OR (STEP) - INDICATE USE OF DEFAULT AMPLITUDES ASSOCIATED WITH THE STEP

     - (RAMP) OR (STEP) - INDICATE USE OF DEFAULT AMPLITUDES ASSOCIATED WITH THE STEP

     - (RAMP) OR (STEP) - INDICATE USE OF DEFAULT AMPLITUDES ASSOCIATED WITH THE STEP

     - (RAMP) OR (STEP) - INDICATE USE OF DEFAULT AMPLITUDES ASSOCIATED WITH THE STEP

     - (RAMP) OR (STEP) - INDICATE USE OF DEFAULT AMPLITUDES ASSOCIATED WITH THE STEP

     - (RAMP) OR (STEP) - INDICATE USE OF DEFAULT AMPLITUDES ASSOCIATED WITH THE STEP

     - (RAMP) OR (STEP) - INDICATE USE OF DEFAULT AMPLITUDES ASSOCIATED WITH THE STEP

     - (RAMP) OR (STEP) - INDICATE USE OF DEFAULT AMPLITUDES ASSOCIATED WITH THE STEP

     - (RAMP) OR (STEP) - INDICATE USE OF DEFAULT AMPLITUDES ASSOCIATED WITH THE STEP

     - (RAMP) OR (STEP) - INDICATE USE OF DEFAULT AMPLITUDES ASSOCIATED WITH THE STEP



                            P R O B L E M   S I Z E


          NUMBER OF ELEMENTS IS                                 15271
          NUMBER OF ELEMENTS DEFINED BY THE USER AND *TIE       11005
          NUMBER OF INTERNAL ELEMENTS GENERATED FOR CONTACT      4266
          NUMBER OF NODES IS                                    14399
          NUMBER OF NODES DEFINED BY THE USER                    5867
          NUMBER OF INTERNAL NODES GENERATED BY THE PROGRAM      8532
          TOTAL NUMBER OF VARIABLES IN THE MODEL                48000
          (DEGREES OF FREEDOM PLUS MAX NO. OF ANY LAGRANGE MULTIPLIER
           VARIABLES. INCLUDE *PRINT,SOLVE=YES TO GET THE ACTUAL NUMBER.)



                              END OF USER INPUT PROCESSING



     JOB TIME SUMMARY
       USER TIME (SEC)      =   1.7000    
       SYSTEM TIME (SEC)    =  0.60000    
       TOTAL CPU TIME (SEC) =   2.3000    
       WALLCLOCK TIME (SEC) =          3
1

   Abaqus 2020                                  Date 05-May-2022   Time 05:32:19
   For use by Supplied by Team-SolidSQUAD under license from Dassault Systemes or its subsidiary.

                                                                                               STEP    1  INCREMENT    1
                                                                                          TIME COMPLETED IN THIS STEP   0.00    


                        S T E P       1     S T A T I C   A N A L Y S I S


                                                                                          

     AUTOMATIC TIME CONTROL WITH -
          A SUGGESTED INITIAL TIME INCREMENT OF                1.000E-03
          AND A TOTAL TIME PERIOD OF                            1.00    
          THE MINIMUM TIME INCREMENT ALLOWED IS                1.000E-07
          THE MAXIMUM TIME INCREMENT ALLOWED IS                0.100    

     LINEAR EQUATION SOLVER TYPE         DIRECT SPARSE

          LARGE DISPLACEMENT THEORY WILL BE USED
  
                   M E M O R Y   E S T I M A T E
  
 PROCESS      FLOATING PT       MINIMUM MEMORY        MEMORY TO
              OPERATIONS           REQUIRED          MINIMIZE I/O
             PER ITERATION           (MB)               (MB)
  
     1          7.83E+08               42                140
  
 NOTE:
      (1) SINCE ABAQUS DOES NOT PRE-ALLOCATE MEMORY AND ONLY ALLOCATES MEMORY AS NEEDED DURING THE ANALYSIS,
          THE MEMORY REQUIREMENT PRINTED HERE CAN ONLY BE VIEWED AS A GENERAL GUIDELINE BASED ON THE BEST
          KNOWLEDGE AVAILABLE AT THE BEGINNING OF A STEP BEFORE THE SOLUTION PROCESS HAS BEGUN.
      (2) THE ESTIMATE IS NORMALLY UPDATED AT THE BEGINNING OF EVERY STEP. IT IS THE MAXIMUM VALUE OF THE
          ESTIMATE FROM THE CURRENT STEP TO THE LAST STEP OF THE ANALYSIS, WITH UNSYMMETRIC SOLUTION TAKEN
          INTO ACCOUNT IF APPLICABLE. 
      (3) SINCE THE ESTIMATE IS BASED ON THE ACTIVE DEGREES OF FREEDOM IN THE FIRST ITERATION OF THE 
          CURRENT STEP, THE MEMORY ESTIMATE MIGHT BE SIGNIFICANTLY DIFFERENT THAN ACTUAL USAGE FOR 
          PROBLEMS WITH SUBSTANTIAL CHANGES IN ACTIVE DEGREES OF FREEDOM BETWEEN STEPS (OR EVEN WITHIN
          THE SAME STEP). EXAMPLES ARE: PROBLEMS WITH SIGNIFICANT CONTACT CHANGES, PROBLEMS WITH MODEL
          CHANGE, PROBLEMS WITH BOTH STATIC STEP AND STEADY STATE DYNAMIC PROCEDURES WHERE ACOUSTIC 
          ELEMENTS WILL ONLY BE ACTIVATED IN THE STEADY STATE DYNAMIC STEPS.
      (4) FOR MULTI-PROCESS EXECUTION, THE ESTIMATED VALUE OF FLOATING POINT OPERATIONS FOR EACH PROCESS
          IS BASED ON AN INITIAL SCHEDULING OF OPERATIONS AND MIGHT NOT REFLECT THE ACTUAL FLOATING 
          POINT OPERATIONS COMPLETED ON EACH PROCESS. OPERATIONS ARE DYNAMICALLY BALANCED DURING EXECUTION, 
          SO THE ACTUAL BALANCE OF OPERATIONS BETWEEN PROCESSES IS EXPECTED TO BE BETTER THAN THE ESTIMATE
          PRINTED HERE.
      (5) THE UPPER LIMIT OF MEMORY THAT CAN BE ALLOCATED BY ABAQUS WILL IN GENERAL DEPEND ON THE VALUE OF
          THE "MEMORY" PARAMETER AND THE AMOUNT OF PHYSICAL MEMORY AVAILABLE ON THE MACHINE. PLEASE SEE
          THE "ABAQUS ANALYSIS USER'S MANUAL" FOR MORE DETAILS. THE ACTUAL USAGE OF MEMORY AND OF DISK
          SPACE FOR SCRATCH DATA WILL DEPEND ON THIS UPPER LIMIT AS WELL AS THE MEMORY REQUIRED TO MINIMIZE
          I/O. IF THE MEMORY UPPER LIMIT IS GREATER THAN THE MEMORY REQUIRED TO MINIMIZE I/O, THEN THE ACTUAL
          MEMORY USAGE WILL BE CLOSE TO THE ESTIMATED "MEMORY TO MINIMIZE I/O" VALUE, AND THE SCRATCH DISK
          USAGE WILL BE CLOSE-TO-ZERO; OTHERWISE, THE ACTUAL MEMORY USED WILL BE CLOSE TO THE PREVIOUSLY
          MENTIONED MEMORY LIMIT, AND THE SCRATCH DISK USAGE WILL BE ROUGHLY PROPORTIONAL TO THE DIFFERENCE
          BETWEEN THE ESTIMATED "MEMORY TO MINIMIZE I/O" AND THE MEMORY UPPER LIMIT. HOWEVER ACCURATE
          ESTIMATE OF THE SCRATCH DISK SPACE IS NOT POSSIBLE.
      (6) USING "*RESTART, WRITE" CAN GENERATE A LARGE AMOUNT OF DATA WRITTEN IN THE WORK DIRECTORY.
1

   Abaqus 2020                                  Date 05-May-2022   Time 05:33:43
   For use by Supplied by Team-SolidSQUAD under license from Dassault Systemes or its subsidiary.

                                                                                               STEP    2  INCREMENT    1
                                                                                          TIME COMPLETED IN THIS STEP   0.00    


                        S T E P       2     S T A T I C   A N A L Y S I S


                                                                                          

     AUTOMATIC TIME CONTROL WITH -
          A SUGGESTED INITIAL TIME INCREMENT OF                1.000E-03
          AND A TOTAL TIME PERIOD OF                            1.00    
          THE MINIMUM TIME INCREMENT ALLOWED IS                1.000E-07
          THE MAXIMUM TIME INCREMENT ALLOWED IS                0.100    

     LINEAR EQUATION SOLVER TYPE         DIRECT SPARSE

          LARGE DISPLACEMENT THEORY WILL BE USED
  
                   M E M O R Y   E S T I M A T E
  
 PROCESS      FLOATING PT       MINIMUM MEMORY        MEMORY TO
              OPERATIONS           REQUIRED          MINIMIZE I/O
             PER ITERATION           (MB)               (MB)
  
     1          9.54E+08               42                144
  
 NOTE:
      (1) SINCE ABAQUS DOES NOT PRE-ALLOCATE MEMORY AND ONLY ALLOCATES MEMORY AS NEEDED DURING THE ANALYSIS,
          THE MEMORY REQUIREMENT PRINTED HERE CAN ONLY BE VIEWED AS A GENERAL GUIDELINE BASED ON THE BEST
          KNOWLEDGE AVAILABLE AT THE BEGINNING OF A STEP BEFORE THE SOLUTION PROCESS HAS BEGUN.
      (2) THE ESTIMATE IS NORMALLY UPDATED AT THE BEGINNING OF EVERY STEP. IT IS THE MAXIMUM VALUE OF THE
          ESTIMATE FROM THE CURRENT STEP TO THE LAST STEP OF THE ANALYSIS, WITH UNSYMMETRIC SOLUTION TAKEN
          INTO ACCOUNT IF APPLICABLE. 
      (3) SINCE THE ESTIMATE IS BASED ON THE ACTIVE DEGREES OF FREEDOM IN THE FIRST ITERATION OF THE 
          CURRENT STEP, THE MEMORY ESTIMATE MIGHT BE SIGNIFICANTLY DIFFERENT THAN ACTUAL USAGE FOR 
          PROBLEMS WITH SUBSTANTIAL CHANGES IN ACTIVE DEGREES OF FREEDOM BETWEEN STEPS (OR EVEN WITHIN
          THE SAME STEP). EXAMPLES ARE: PROBLEMS WITH SIGNIFICANT CONTACT CHANGES, PROBLEMS WITH MODEL
          CHANGE, PROBLEMS WITH BOTH STATIC STEP AND STEADY STATE DYNAMIC PROCEDURES WHERE ACOUSTIC 
          ELEMENTS WILL ONLY BE ACTIVATED IN THE STEADY STATE DYNAMIC STEPS.
      (4) FOR MULTI-PROCESS EXECUTION, THE ESTIMATED VALUE OF FLOATING POINT OPERATIONS FOR EACH PROCESS
          IS BASED ON AN INITIAL SCHEDULING OF OPERATIONS AND MIGHT NOT REFLECT THE ACTUAL FLOATING 
          POINT OPERATIONS COMPLETED ON EACH PROCESS. OPERATIONS ARE DYNAMICALLY BALANCED DURING EXECUTION, 
          SO THE ACTUAL BALANCE OF OPERATIONS BETWEEN PROCESSES IS EXPECTED TO BE BETTER THAN THE ESTIMATE
          PRINTED HERE.
      (5) THE UPPER LIMIT OF MEMORY THAT CAN BE ALLOCATED BY ABAQUS WILL IN GENERAL DEPEND ON THE VALUE OF
          THE "MEMORY" PARAMETER AND THE AMOUNT OF PHYSICAL MEMORY AVAILABLE ON THE MACHINE. PLEASE SEE
          THE "ABAQUS ANALYSIS USER'S MANUAL" FOR MORE DETAILS. THE ACTUAL USAGE OF MEMORY AND OF DISK
          SPACE FOR SCRATCH DATA WILL DEPEND ON THIS UPPER LIMIT AS WELL AS THE MEMORY REQUIRED TO MINIMIZE
          I/O. IF THE MEMORY UPPER LIMIT IS GREATER THAN THE MEMORY REQUIRED TO MINIMIZE I/O, THEN THE ACTUAL
          MEMORY USAGE WILL BE CLOSE TO THE ESTIMATED "MEMORY TO MINIMIZE I/O" VALUE, AND THE SCRATCH DISK
          USAGE WILL BE CLOSE-TO-ZERO; OTHERWISE, THE ACTUAL MEMORY USED WILL BE CLOSE TO THE PREVIOUSLY
          MENTIONED MEMORY LIMIT, AND THE SCRATCH DISK USAGE WILL BE ROUGHLY PROPORTIONAL TO THE DIFFERENCE
          BETWEEN THE ESTIMATED "MEMORY TO MINIMIZE I/O" AND THE MEMORY UPPER LIMIT. HOWEVER ACCURATE
          ESTIMATE OF THE SCRATCH DISK SPACE IS NOT POSSIBLE.
      (6) USING "*RESTART, WRITE" CAN GENERATE A LARGE AMOUNT OF DATA WRITTEN IN THE WORK DIRECTORY.



                              ANALYSIS COMPLETE
                              WITH      2 ERROR MESSAGES ON THE MSG FILE
                              AND     253 WARNING MESSAGES ON THE DAT FILE
                              AND      41 WARNING MESSAGES ON THE MSG FILE
                                        8 WARNINGS ARE FOR NEGATIVE EIGENVALUES



     JOB TIME SUMMARY
       USER TIME (SEC)      =   1215.4    
       SYSTEM TIME (SEC)    =   43.100    
       TOTAL CPU TIME (SEC) =   1258.5    
       WALLCLOCK TIME (SEC) =        508
