1

   Abaqus 2020                                  Date 05-May-2022   Time 05:32:25
   For use by Supplied by Team-SolidSQUAD under license from Dassault Systemes or its subsidiary.

                                                                                 
                                                                                 
 STEP    1     INCREMENT     1     STEP TIME    0.00    


                        S T E P       1     S T A T I C   A N A L Y S I S


                                                                                          

     AUTOMATIC TIME CONTROL WITH -
          A SUGGESTED INITIAL TIME INCREMENT OF                1.000E-03
          AND A TOTAL TIME PERIOD OF                            1.00    
          THE MINIMUM TIME INCREMENT ALLOWED IS                1.000E-07
          THE MAXIMUM TIME INCREMENT ALLOWED IS                0.100    

     LINEAR EQUATION SOLVER TYPE         DIRECT SPARSE

 CONVERGENCE TOLERANCE PARAMETERS FOR FORCE    
     CRITERION FOR RESIDUAL FORCE     FOR A NONLINEAR PROBLEM          5.000E-03
     CRITERION FOR DISP.    CORRECTION IN A NONLINEAR PROBLEM          1.000E-02
     INITIAL VALUE OF TIME AVERAGE FORCE                               1.000E-02
     AVERAGE FORCE     IS TIME AVERAGE FORCE    
     ALTERNATE CRIT. FOR RESIDUAL FORCE     FOR A NONLINEAR PROBLEM    2.000E-02
     CRITERION FOR ZERO FORCE     RELATIVE TO TIME AVRG. FORCE         1.000E-05
     CRITERION FOR RESIDUAL FORCE     WHEN THERE IS ZERO FLUX          1.000E-05
     CRITERION FOR DISP.    CORRECTION WHEN THERE IS ZERO FLUX         1.000E-03
     CRITERION FOR RESIDUAL FORCE     FOR A LINEAR INCREMENT           1.000E-08
     FIELD CONVERSION RATIO                                             1.00    
     CRITERION FOR ZERO FORCE     REL. TO TIME AVRG. MAX. FORCE        1.000E-05
     CRITERION FOR ZERO DISP.    RELATIVE TO CHARACTERISTIC LENGTH     1.000E-08

 CONVERGENCE TOLERANCE PARAMETERS FOR MOMENT   
     CRITERION FOR RESIDUAL MOMENT    FOR A NONLINEAR PROBLEM          5.000E-03
     CRITERION FOR ROTATION CORRECTION IN A NONLINEAR PROBLEM          1.000E-02
     INITIAL VALUE OF TIME AVERAGE MOMENT                              1.000E-02
     AVERAGE MOMENT    IS TIME AVERAGE MOMENT   
     ALTERNATE CRIT. FOR RESIDUAL MOMENT    FOR A NONLINEAR PROBLEM    2.000E-02
     CRITERION FOR ZERO MOMENT    RELATIVE TO TIME AVRG. MOMENT        1.000E-05
     CRITERION FOR RESIDUAL MOMENT    WHEN THERE IS ZERO FLUX          1.000E-05
     CRITERION FOR ROTATION CORRECTION WHEN THERE IS ZERO FLUX         1.000E-03
     CRITERION FOR RESIDUAL MOMENT    FOR A LINEAR INCREMENT           1.000E-08
     FIELD CONVERSION RATIO                                             1.00    
     CRITERION FOR ZERO MOMENT    REL. TO TIME AVRG. MAX. MOMENT       1.000E-05

     VOLUMETRIC STRAIN COMPATIBILITY TOLERANCE FOR HYBRID SOLIDS       1.000E-05
     AXIAL STRAIN COMPATIBILITY TOLERANCE FOR HYBRID BEAMS             1.000E-05
     TRANS. SHEAR STRAIN COMPATIBILITY TOLERANCE FOR HYBRID BEAMS      1.000E-05
     SOFT CONTACT CONSTRAINT COMPATIBILITY TOLERANCE FOR P>P0          5.000E-03
     SOFT CONTACT CONSTRAINT COMPATIBILITY TOLERANCE FOR P=0.0         0.100    
     CONTACT FORCE ERROR TOLERANCE FOR CONVERT SDI=YES                 1.00    
     DISPLACEMENT COMPATIBILITY TOLERANCE FOR DCOUP ELEMENTS           1.000E-05
     ROTATION COMPATIBILITY TOLERANCE FOR DCOUP ELEMENTS               1.000E-05

 EQUILIBRIUM WILL BE CHECKED FOR SEVERE DISCONTINUITY ITERATIONS

 TIME INCREMENTATION CONTROL PARAMETERS:
     FIRST EQUILIBRIUM ITERATION FOR CONSECUTIVE DIVERGENCE CHECK              4
     EQUILIBRIUM ITERATION AT WHICH LOG. CONVERGENCE RATE CHECK BEGINS         8
     EQUILIBRIUM ITERATION AFTER WHICH ALTERNATE RESIDUAL IS USED              9
     MAXIMUM EQUILIBRIUM ITERATIONS ALLOWED                                   16
     EQUILIBRIUM ITERATION COUNT FOR CUT-BACK IN NEXT INCREMENT               10
     MAXIMUM EQUILIB. ITERS IN TWO INCREMENTS FOR TIME INCREMENT INCREASE      4
     MAXIMUM ITERATIONS FOR SEVERE DISCONTINUITIES                            50
     MAXIMUM ATTEMPTS ALLOWED IN AN INCREMENT                                  5
     MAXIMUM DISCON. ITERS IN TWO INCREMENTS FOR TIME INCREMENT INCREASE      50
     MAXIMUM CONTACT AUGMENTATIONS FOR *SURFACE BEHAVIOR,AUGMENTED LAGRANGE   50
     CUT-BACK FACTOR AFTER DIVERGENCE                                 0.2500    
     CUT-BACK FACTOR FOR TOO SLOW CONVERGENCE                         0.5000    
     CUT-BACK FACTOR AFTER TOO MANY EQUILIBRIUM ITERATIONS            0.7500    
     CUT-BACK FACTOR AFTER TOO MANY SEVERE DISCONTINUITY ITERATIONS   0.2500    
     CUT-BACK FACTOR AFTER PROBLEMS IN ELEMENT ASSEMBLY               0.2500    
     INCREASE FACTOR AFTER TWO INCREMENTS THAT CONVERGE QUICKLY        1.500    
     MAX. TIME INCREMENT INCREASE FACTOR ALLOWED                       1.500    
     MAX. TIME INCREMENT INCREASE FACTOR ALLOWED (DYNAMICS)            1.250    
     MAX. TIME INCREMENT INCREASE FACTOR ALLOWED (DIFFUSION)           2.000    
     MINIMUM TIME INCREMENT RATIO FOR EXTRAPOLATION TO OCCUR          0.1000    
     MAX. RATIO OF TIME INCREMENT TO STABILITY LIMIT                   1.000    
     FRACTION OF STABILITY LIMIT FOR NEW TIME INCREMENT               0.9500    
     TIME INCREMENT INCREASE FACTOR BEFORE A TIME POINT                1.000    
     GLOBAL STABILIZATION CONTROL IS NOT USED

          PRINT OF INCREMENT NUMBER, TIME, ETC., EVERY    1  INCREMENTS

 LINE SEARCH TOLERANCE PARAMETERS:
     MAXIMUM NUMBER OF ZERO-FINDING ITERATIONS                                 0
     MAXIMUM CORRECTION SCALE FACTOR                                    1.00    
     MINIMUM CORRECTION SCALE FACTOR                                   1.000E-04
     RESIDUAL REDUCTION FACTOR TO END LINE SEARCHING                   0.250    
     RATIO OF NEW TO OLD SCALE FACTORS TO END LINE SEARCHING           0.100    

          THE QUASI-NEWTON SOLUTION TECHNIQUE WILL BE USED
          THE MAXIMUM NUMBER OF ITERATIONS ALLOWED BEFORE
          REFORMING THE KERNEL MATRIX IS                           8

     THE MAXIMUM NUMBER OF INCREMENTS IN THIS STEP IS                    1000

          LARGE DISPLACEMENT THEORY WILL BE USED

     LINEAR EXTRAPOLATION WILL BE USED

     CHARACTERISTIC ELEMENT LENGTH     8.307E-03

     DETAILS REGARDING ACTUAL SOLUTION WAVEFRONT REQUESTED

     DETAILED OUTPUT OF DIAGNOSTICS TO DATABASE REQUESTED

     PRINT OF INCREMENT NUMBER, TIME, ETC., TO THE MESSAGE FILE EVERY     1  INCREMENTS

     ELEMENT OPERATIONS WILL BE CARRIED OUT IN PARALLEL USING   5 PROCESSORS

     PARALLEL CONTACT TRACKING ENABLED


     COLLECTING MODEL CONSTRAINT INFORMATION FOR OVERCONSTRAINT CHECKS

     COLLECTING STEP CONSTRAINT INFORMATION FOR OVERCONSTRAINT CHECKS


  INCREMENT     1 STARTS. ATTEMPT NUMBER  1, TIME INCREMENT  1.000E-03
 
     INITIAL ELEMENT LOAD BALANCE
            PROCESS    1   THREAD     NUMBER OF ELEMENTS
                              1            3328
                              2            3242
                              3            3072
                              4            2813
                              5            2816

 ==> quasi-Newton: performing full factorization

 ***WARNING: THERE ARE 4 UNCONNECTED REGIONS IN THE MODEL.

 ***NOTE: SFM TYPE SURFACE ELEMENTS USED TO DEFINE CONTACT SURFACES NOT PART OF 
          A RIGID BODY MAY INCREASE THE NUMBER OR UNCONNECTED REGIONS REPORTED.

  USING THE DIRECT SOLVER WITH   5 PROCESSORS

     CHECK POINT   START OF SOLVER    

  NUMBER OF EQUATIONS =     34476     NUMBER OF RHS =    1
  NUMBER OF FLOATING PT. OPERATIONS =  7.83E+08

     CHECK POINT  END OF SOLVER       

       ELAPSED USER TIME (SEC)      =  0.50000    
       ELAPSED SYSTEM TIME (SEC)    =  0.10000    
       ELAPSED TOTAL CPU TIME (SEC) =  0.60000    
       ELAPSED WALLCLOCK TIME (SEC) =          1

               CONVERGENCE CHECKS FOR EQUILIBRIUM ITERATION     1


 AVERAGE FORCE                      4.861E-06   TIME AVG. FORCE        1.20    
                                                (FROM MOMENT    FIELD)
 LARGEST RESIDUAL FORCE             2.880E-04   AT NODE        131   DOF  2
   INSTANCE: WAIST-UP-1                                                                      
 LARGEST INCREMENT OF DISP.         2.222E-04   AT NODE        499   DOF  3
   INSTANCE: WAIST-UP-1                                                                      
 LARGEST CORRECTION TO DISP.        2.222E-04   AT NODE        499   DOF  3
   INSTANCE: WAIST-UP-1                                                                      
          THE FORCE     IS ZERO EVERYWHERE BUT THE FORCE     RESIDUAL OR
          THE DISP.    CORRECTION IS NON-ZERO

 AVERAGE MOMENT                     2.690E-09   TIME AVG. MOMENT      1.000E-02
 LARGEST RESIDUAL MOMENT            4.652E-08   AT NODE        460   DOF  4
   INSTANCE: WAIST-UP-1                                                                      
 LARGEST INCREMENT OF ROTATION     -1.602E-02   AT NODE         90   DOF  4
   INSTANCE: WAIST-UP-1                                                                      
 LARGEST CORRECTION TO ROTATION    -1.602E-02   AT NODE         90   DOF  4
   INSTANCE: WAIST-UP-1                                                                      
          THERE IS ZERO MOMENT    EVERYWHERE
 

 ***WARNING: THERE IS ZERO MOMENT EVERYWHERE IN THE MODEL BASED ON THE DEFAULT 
             CRITERION. PLEASE CHECK THE VALUE OF THE AVERAGE MOMENT DURING THE 
             CURRENT ITERATION TO VERIFY THAT THE MOMENT IS SMALL ENOUGH TO BE 
             TREATED AS ZERO. IF NOT, PLEASE USE THE SOLUTION CONTROLS TO RESET 
             THE CRITERION FOR ZERO MOMENT.

 ==> quasi-Newton: applying BFGS update  1

  USING THE DIRECT SOLVER WITH   5 PROCESSORS

     CHECK POINT   START OF SOLVER    

  NUMBER OF EQUATIONS =     34476     NUMBER OF RHS =    1
  NUMBER OF FLOATING PT. OPERATIONS =  7.83E+08

     CHECK POINT  END OF SOLVER       

       ELAPSED USER TIME (SEC)      =  0.20000    
       ELAPSED SYSTEM TIME (SEC)    =  0.10000    
       ELAPSED TOTAL CPU TIME (SEC) =  0.30000    
       ELAPSED WALLCLOCK TIME (SEC) =          0
 ==> quasi-Newton:  skipped BFGS update  1

               CONVERGENCE CHECKS FOR EQUILIBRIUM ITERATION     2
               LINE SEARCH SCALE FACTOR = 0.753    


 AVERAGE FORCE                      4.722E-06   TIME AVG. FORCE        1.20    
                                                (FROM MOMENT    FIELD)
 LARGEST RESIDUAL FORCE            -1.490E-05   AT NODE         91   DOF  2
   INSTANCE: WAIST-UP-1                                                                      
 LARGEST INCREMENT OF DISP.         1.972E-04   AT NODE        499   DOF  3
   INSTANCE: WAIST-UP-1                                                                      
 LARGEST CORRECTION TO DISP.       -2.500E-05   AT NODE        499   DOF  3
   INSTANCE: WAIST-UP-1                                                                      
          THE FORCE     IS ZERO EVERYWHERE BUT THE FORCE     RESIDUAL OR
          THE DISP.    CORRECTION IS NON-ZERO

 AVERAGE MOMENT                     2.562E-09   TIME AVG. MOMENT      1.000E-02
 LARGEST RESIDUAL MOMENT           -2.975E-09   AT NODE        498   DOF  4
   INSTANCE: WAIST-UP-1                                                                      
 LARGEST INCREMENT OF ROTATION     -1.397E-02   AT NODE         90   DOF  4
   INSTANCE: WAIST-UP-1                                                                      
 LARGEST CORRECTION TO ROTATION     2.065E-03   AT NODE         22   DOF  4
   INSTANCE: WAIST-UP-1                                                                      
          THERE IS ZERO MOMENT    EVERYWHERE
 

 ***WARNING: THERE IS ZERO MOMENT EVERYWHERE IN THE MODEL BASED ON THE DEFAULT 
             CRITERION. PLEASE CHECK THE VALUE OF THE AVERAGE MOMENT DURING THE 
             CURRENT ITERATION TO VERIFY THAT THE MOMENT IS SMALL ENOUGH TO BE 
             TREATED AS ZERO. IF NOT, PLEASE USE THE SOLUTION CONTROLS TO RESET 
             THE CRITERION FOR ZERO MOMENT.

 ==> quasi-Newton: applying BFGS update  1

  USING THE DIRECT SOLVER WITH   5 PROCESSORS

     CHECK POINT   START OF SOLVER    

  NUMBER OF EQUATIONS =     34476     NUMBER OF RHS =    1
  NUMBER OF FLOATING PT. OPERATIONS =  7.83E+08

     CHECK POINT  END OF SOLVER       

       ELAPSED USER TIME (SEC)      =  0.10000    
       ELAPSED SYSTEM TIME (SEC)    =   0.0000    
       ELAPSED TOTAL CPU TIME (SEC) =  0.10000    
       ELAPSED WALLCLOCK TIME (SEC) =          0

               CONVERGENCE CHECKS FOR EQUILIBRIUM ITERATION     3


 AVERAGE FORCE                      4.715E-06   TIME AVG. FORCE        1.20    
                                                (FROM MOMENT    FIELD)
 LARGEST RESIDUAL FORCE             6.186E-06   AT NODE        460   DOF  2
   INSTANCE: WAIST-UP-1                                                                      
 LARGEST INCREMENT OF DISP.         1.980E-04   AT NODE        499   DOF  3
   INSTANCE: WAIST-UP-1                                                                      
 LARGEST CORRECTION TO DISP.        1.268E-06   AT NODE        532   DOF  3
   INSTANCE: WAIST-UP-1                                                                      
          THERE IS ZERO FORCE     EVERYWHERE

 AVERAGE MOMENT                     2.557E-09   TIME AVG. MOMENT      1.000E-02
 LARGEST RESIDUAL MOMENT           -2.294E-10   AT NODE        499   DOF  4
   INSTANCE: WAIST-UP-1                                                                      
 LARGEST INCREMENT OF ROTATION     -1.416E-02   AT NODE         90   DOF  4
   INSTANCE: WAIST-UP-1                                                                      
 LARGEST CORRECTION TO ROTATION    -1.888E-04   AT NODE         22   DOF  4
   INSTANCE: WAIST-UP-1                                                                      
          THERE IS ZERO MOMENT    EVERYWHERE
 

 ***WARNING: THERE IS ZERO MOMENT EVERYWHERE IN THE MODEL BASED ON THE DEFAULT 
             CRITERION. PLEASE CHECK THE VALUE OF THE AVERAGE MOMENT DURING THE 
             CURRENT ITERATION TO VERIFY THAT THE MOMENT IS SMALL ENOUGH TO BE 
             TREATED AS ZERO. IF NOT, PLEASE USE THE SOLUTION CONTROLS TO RESET 
             THE CRITERION FOR ZERO MOMENT.

 ITERATION SUMMARY FOR THE INCREMENT:   3 TOTAL ITERATIONS, OF WHICH
   0 ARE SEVERE DISCONTINUITY ITERATIONS AND  3 ARE EQUILIBRIUM ITERATIONS.

 TIME INCREMENT COMPLETED  1.000E-03,  FRACTION OF STEP COMPLETED  1.000E-03
 STEP TIME COMPLETED       1.000E-03,  TOTAL TIME COMPLETED        1.000E-03


  INCREMENT     2 STARTS. ATTEMPT NUMBER  1, TIME INCREMENT  1.000E-03

 ==> quasi-Newton: performing full factorization

  USING THE DIRECT SOLVER WITH   5 PROCESSORS

     CHECK POINT   START OF SOLVER    

  NUMBER OF EQUATIONS =     34476     NUMBER OF RHS =    1
  NUMBER OF FLOATING PT. OPERATIONS =  7.83E+08

     CHECK POINT  END OF SOLVER       

       ELAPSED USER TIME (SEC)      =  0.60000    
       ELAPSED SYSTEM TIME (SEC)    =   0.0000    
       ELAPSED TOTAL CPU TIME (SEC) =  0.60000    
       ELAPSED WALLCLOCK TIME (SEC) =          0

               CONVERGENCE CHECKS FOR EQUILIBRIUM ITERATION     1


 AVERAGE FORCE                      9.360E-06   TIME AVG. FORCE        1.20    
                                                (FROM MOMENT    FIELD)
 LARGEST RESIDUAL FORCE             8.472E-06   AT NODE        131   DOF  2
   INSTANCE: WAIST-UP-1                                                                      
 LARGEST INCREMENT OF DISP.         1.620E-04   AT NODE        288   DOF  3
   INSTANCE: WAIST-UP-1                                                                      
 LARGEST CORRECTION TO DISP.       -3.643E-05   AT NODE        499   DOF  3
   INSTANCE: WAIST-UP-1                                                                      
          THERE IS ZERO FORCE     EVERYWHERE

 AVERAGE MOMENT                     4.904E-09   TIME AVG. MOMENT      1.000E-02
 LARGEST RESIDUAL MOMENT           -9.178E-09   AT NODE        771   DOF  4
   INSTANCE: WAIST-MIDDLE-1                                                                  
 LARGEST INCREMENT OF ROTATION     -1.140E-02   AT NODE         90   DOF  4
   INSTANCE: WAIST-UP-1                                                                      
 LARGEST CORRECTION TO ROTATION     2.754E-03   AT NODE         90   DOF  4
   INSTANCE: WAIST-UP-1                                                                      
          THERE IS ZERO MOMENT    EVERYWHERE
 

 ***WARNING: THERE IS ZERO MOMENT EVERYWHERE IN THE MODEL BASED ON THE DEFAULT 
             CRITERION. PLEASE CHECK THE VALUE OF THE AVERAGE MOMENT DURING THE 
             CURRENT ITERATION TO VERIFY THAT THE MOMENT IS SMALL ENOUGH TO BE 
             TREATED AS ZERO. IF NOT, PLEASE USE THE SOLUTION CONTROLS TO RESET 
             THE CRITERION FOR ZERO MOMENT.
          TIME INCREMENT MAY NOW INCREASE TO    1.500E-03

 ITERATION SUMMARY FOR THE INCREMENT:   1 TOTAL ITERATIONS, OF WHICH
   0 ARE SEVERE DISCONTINUITY ITERATIONS AND  1 ARE EQUILIBRIUM ITERATIONS.

 TIME INCREMENT COMPLETED  1.000E-03,  FRACTION OF STEP COMPLETED  2.000E-03
 STEP TIME COMPLETED       2.000E-03,  TOTAL TIME COMPLETED        2.000E-03


  INCREMENT     3 STARTS. ATTEMPT NUMBER  1, TIME INCREMENT  1.500E-03

 ==> quasi-Newton: performing full factorization

  USING THE DIRECT SOLVER WITH   5 PROCESSORS

     CHECK POINT   START OF SOLVER    

  NUMBER OF EQUATIONS =     34476     NUMBER OF RHS =    1
  NUMBER OF FLOATING PT. OPERATIONS =  7.83E+08

     CHECK POINT  END OF SOLVER       

       ELAPSED USER TIME (SEC)      =  0.30000    
       ELAPSED SYSTEM TIME (SEC)    =  0.10000    
       ELAPSED TOTAL CPU TIME (SEC) =  0.40000    
       ELAPSED WALLCLOCK TIME (SEC) =          0

               CONVERGENCE CHECKS FOR EQUILIBRIUM ITERATION     1


 AVERAGE FORCE                      1.623E-05   TIME AVG. FORCE       1.623E-05
 LARGEST RESIDUAL FORCE             1.447E-05   AT NODE        131   DOF  2
   INSTANCE: WAIST-UP-1                                                                      
 LARGEST INCREMENT OF DISP.         1.984E-04   AT NODE        288   DOF  3
   INSTANCE: WAIST-UP-1                                                                      
 LARGEST CORRECTION TO DISP.       -4.837E-05   AT NODE        499   DOF  3
   INSTANCE: WAIST-UP-1                                                                      
          FORCE     EQUILIBRIUM NOT ACHIEVED WITHIN TOLERANCE.

 AVERAGE MOMENT                     8.128E-09   TIME AVG. MOMENT      1.000E-02
 LARGEST RESIDUAL MOMENT           -1.251E-08   AT NODE        771   DOF  4
   INSTANCE: WAIST-MIDDLE-1                                                                  
 LARGEST INCREMENT OF ROTATION     -1.347E-02   AT NODE         90   DOF  4
   INSTANCE: WAIST-UP-1                                                                      
 LARGEST CORRECTION TO ROTATION     3.631E-03   AT NODE         90   DOF  4
   INSTANCE: WAIST-UP-1                                                                      
          THERE IS ZERO MOMENT    EVERYWHERE
 

 ***WARNING: THERE IS ZERO MOMENT EVERYWHERE IN THE MODEL BASED ON THE DEFAULT 
             CRITERION. PLEASE CHECK THE VALUE OF THE AVERAGE MOMENT DURING THE 
             CURRENT ITERATION TO VERIFY THAT THE MOMENT IS SMALL ENOUGH TO BE 
             TREATED AS ZERO. IF NOT, PLEASE USE THE SOLUTION CONTROLS TO RESET 
             THE CRITERION FOR ZERO MOMENT.

 ==> quasi-Newton: applying BFGS update  1

  USING THE DIRECT SOLVER WITH   5 PROCESSORS

     CHECK POINT   START OF SOLVER    

  NUMBER OF EQUATIONS =     34476     NUMBER OF RHS =    1
  NUMBER OF FLOATING PT. OPERATIONS =  7.83E+08

     CHECK POINT  END OF SOLVER       

       ELAPSED USER TIME (SEC)      =  0.30000    
       ELAPSED SYSTEM TIME (SEC)    =   0.0000    
       ELAPSED TOTAL CPU TIME (SEC) =  0.30000    
       ELAPSED WALLCLOCK TIME (SEC) =          0
 ==> quasi-Newton:  skipped BFGS update  1

               CONVERGENCE CHECKS FOR EQUILIBRIUM ITERATION     2


 AVERAGE FORCE                      1.622E-05   TIME AVG. FORCE       1.622E-05
 LARGEST RESIDUAL FORCE             1.595E-06   AT NODE        460   DOF  2
   INSTANCE: WAIST-UP-1                                                                      
 LARGEST INCREMENT OF DISP.         1.970E-04   AT NODE        288   DOF  3
   INSTANCE: WAIST-UP-1                                                                      
 LARGEST CORRECTION TO DISP.       -1.733E-06   AT NODE        499   DOF  3
   INSTANCE: WAIST-UP-1                                                                      
          FORCE     EQUILIBRIUM NOT ACHIEVED WITHIN TOLERANCE.

 AVERAGE MOMENT                     8.122E-09   TIME AVG. MOMENT      1.000E-02
 LARGEST RESIDUAL MOMENT            3.846E-10   AT NODE        460   DOF  4
   INSTANCE: WAIST-UP-1                                                                      
 LARGEST INCREMENT OF ROTATION     -1.329E-02   AT NODE         90   DOF  4
   INSTANCE: WAIST-UP-1                                                                      
 LARGEST CORRECTION TO ROTATION     1.857E-04   AT NODE         90   DOF  4
   INSTANCE: WAIST-UP-1                                                                      
          THERE IS ZERO MOMENT    EVERYWHERE
 

 ***WARNING: THERE IS ZERO MOMENT EVERYWHERE IN THE MODEL BASED ON THE DEFAULT 
             CRITERION. PLEASE CHECK THE VALUE OF THE AVERAGE MOMENT DURING THE 
             CURRENT ITERATION TO VERIFY THAT THE MOMENT IS SMALL ENOUGH TO BE 
             TREATED AS ZERO. IF NOT, PLEASE USE THE SOLUTION CONTROLS TO RESET 
             THE CRITERION FOR ZERO MOMENT.

 ==> quasi-Newton: applying BFGS update  1

  USING THE DIRECT SOLVER WITH   5 PROCESSORS

     CHECK POINT   START OF SOLVER    

  NUMBER OF EQUATIONS =     34476     NUMBER OF RHS =    1
  NUMBER OF FLOATING PT. OPERATIONS =  7.83E+08

     CHECK POINT  END OF SOLVER       

       ELAPSED USER TIME (SEC)      =  0.30000    
       ELAPSED SYSTEM TIME (SEC)    =  0.10000    
       ELAPSED TOTAL CPU TIME (SEC) =  0.40000    
       ELAPSED WALLCLOCK TIME (SEC) =          0

               CONVERGENCE CHECKS FOR EQUILIBRIUM ITERATION     3


 AVERAGE FORCE                      1.622E-05   TIME AVG. FORCE       1.622E-05
 LARGEST RESIDUAL FORCE             6.204E-09   AT NODE        460   DOF  2
   INSTANCE: WAIST-UP-1                                                                      
 LARGEST INCREMENT OF DISP.         1.969E-04   AT NODE        288   DOF  3
   INSTANCE: WAIST-UP-1                                                                      
 LARGEST CORRECTION TO DISP.       -1.324E-07   AT NODE        532   DOF  3
   INSTANCE: WAIST-UP-1                                                                      
          THE FORCE     EQUILIBRIUM EQUATIONS HAVE CONVERGED

 AVERAGE MOMENT                     8.122E-09   TIME AVG. MOMENT      1.000E-02
 LARGEST RESIDUAL MOMENT            2.987E-12   AT NODE        771   DOF  4
   INSTANCE: WAIST-MIDDLE-1                                                                  
 LARGEST INCREMENT OF ROTATION     -1.327E-02   AT NODE         90   DOF  4
   INSTANCE: WAIST-UP-1                                                                      
 LARGEST CORRECTION TO ROTATION     1.480E-05   AT NODE         90   DOF  4
   INSTANCE: WAIST-UP-1                                                                      
          THERE IS ZERO MOMENT    EVERYWHERE
 

 ***WARNING: THERE IS ZERO MOMENT EVERYWHERE IN THE MODEL BASED ON THE DEFAULT 
             CRITERION. PLEASE CHECK THE VALUE OF THE AVERAGE MOMENT DURING THE 
             CURRENT ITERATION TO VERIFY THAT THE MOMENT IS SMALL ENOUGH TO BE 
             TREATED AS ZERO. IF NOT, PLEASE USE THE SOLUTION CONTROLS TO RESET 
             THE CRITERION FOR ZERO MOMENT.
          TIME INCREMENT MAY NOW INCREASE TO    2.250E-03

 ITERATION SUMMARY FOR THE INCREMENT:   3 TOTAL ITERATIONS, OF WHICH
   0 ARE SEVERE DISCONTINUITY ITERATIONS AND  3 ARE EQUILIBRIUM ITERATIONS.

 TIME INCREMENT COMPLETED  1.500E-03,  FRACTION OF STEP COMPLETED  3.500E-03
 STEP TIME COMPLETED       3.500E-03,  TOTAL TIME COMPLETED        3.500E-03


  INCREMENT     4 STARTS. ATTEMPT NUMBER  1, TIME INCREMENT  2.250E-03

 ==> quasi-Newton: performing full factorization

  USING THE DIRECT SOLVER WITH   5 PROCESSORS

     CHECK POINT   START OF SOLVER    

  NUMBER OF EQUATIONS =     34476     NUMBER OF RHS =    1
  NUMBER OF FLOATING PT. OPERATIONS =  7.83E+08

     CHECK POINT  END OF SOLVER       

       ELAPSED USER TIME (SEC)      =  0.50000    
       ELAPSED SYSTEM TIME (SEC)    =  0.10000    
       ELAPSED TOTAL CPU TIME (SEC) =  0.60000    
       ELAPSED WALLCLOCK TIME (SEC) =          0

               CONVERGENCE CHECKS FOR EQUILIBRIUM ITERATION     1


 AVERAGE FORCE                      9.232E-05   TIME AVG. FORCE       5.427E-05
 LARGEST RESIDUAL FORCE             2.134E-05   AT NODE        131   DOF  2
   INSTANCE: WAIST-UP-1                                                                      
 LARGEST INCREMENT OF DISP.         2.366E-04   AT NODE        288   DOF  3
   INSTANCE: WAIST-UP-1                                                                      
 LARGEST CORRECTION TO DISP.       -6.165E-05   AT NODE        499   DOF  3
   INSTANCE: WAIST-UP-1                                                                      
          FORCE     EQUILIBRIUM NOT ACHIEVED WITHIN TOLERANCE.

 AVERAGE MOMENT                     1.249E-08   TIME AVG. MOMENT      1.000E-02
 LARGEST RESIDUAL MOMENT           -1.954E-08   AT NODE        771   DOF  4
   INSTANCE: WAIST-MIDDLE-1                                                                  
 LARGEST INCREMENT OF ROTATION     -1.560E-02   AT NODE         90   DOF  4
   INSTANCE: WAIST-UP-1                                                                      
 LARGEST CORRECTION TO ROTATION     4.301E-03   AT NODE         90   DOF  4
   INSTANCE: WAIST-UP-1                                                                      
          THERE IS ZERO MOMENT    EVERYWHERE
 

 ***WARNING: THERE IS ZERO MOMENT EVERYWHERE IN THE MODEL BASED ON THE DEFAULT 
             CRITERION. PLEASE CHECK THE VALUE OF THE AVERAGE MOMENT DURING THE 
             CURRENT ITERATION TO VERIFY THAT THE MOMENT IS SMALL ENOUGH TO BE 
             TREATED AS ZERO. IF NOT, PLEASE USE THE SOLUTION CONTROLS TO RESET 
             THE CRITERION FOR ZERO MOMENT.

 ==> quasi-Newton: applying BFGS update  1

  USING THE DIRECT SOLVER WITH   5 PROCESSORS

     CHECK POINT   START OF SOLVER    

  NUMBER OF EQUATIONS =     34476     NUMBER OF RHS =    1
  NUMBER OF FLOATING PT. OPERATIONS =  7.83E+08

     CHECK POINT  END OF SOLVER       

       ELAPSED USER TIME (SEC)      =  0.20000    
       ELAPSED SYSTEM TIME (SEC)    =  0.10000    
       ELAPSED TOTAL CPU TIME (SEC) =  0.30000    
       ELAPSED WALLCLOCK TIME (SEC) =          0
 ==> quasi-Newton:  skipped BFGS update  1

               CONVERGENCE CHECKS FOR EQUILIBRIUM ITERATION     2


 AVERAGE FORCE                      9.227E-05   TIME AVG. FORCE       5.425E-05
 LARGEST RESIDUAL FORCE             2.489E-06   AT NODE        460   DOF  2
   INSTANCE: WAIST-UP-1                                                                      
 LARGEST INCREMENT OF DISP.         2.346E-04   AT NODE        288   DOF  3
   INSTANCE: WAIST-UP-1                                                                      
 LARGEST CORRECTION TO DISP.       -2.409E-06   AT NODE        499   DOF  3
   INSTANCE: WAIST-UP-1                                                                      
          FORCE     EQUILIBRIUM NOT ACHIEVED WITHIN TOLERANCE.

 AVERAGE MOMENT                     1.248E-08   TIME AVG. MOMENT      1.000E-02
 LARGEST RESIDUAL MOMENT            7.253E-10   AT NODE        460   DOF  4
   INSTANCE: WAIST-UP-1                                                                      
 LARGEST INCREMENT OF ROTATION     -1.535E-02   AT NODE         90   DOF  4
   INSTANCE: WAIST-UP-1                                                                      
 LARGEST CORRECTION TO ROTATION     2.517E-04   AT NODE         90   DOF  4
   INSTANCE: WAIST-UP-1                                                                      
          THERE IS ZERO MOMENT    EVERYWHERE
 

 ***WARNING: THERE IS ZERO MOMENT EVERYWHERE IN THE MODEL BASED ON THE DEFAULT 
             CRITERION. PLEASE CHECK THE VALUE OF THE AVERAGE MOMENT DURING THE 
             CURRENT ITERATION TO VERIFY THAT THE MOMENT IS SMALL ENOUGH TO BE 
             TREATED AS ZERO. IF NOT, PLEASE USE THE SOLUTION CONTROLS TO RESET 
             THE CRITERION FOR ZERO MOMENT.

 ==> quasi-Newton: applying BFGS update  1

  USING THE DIRECT SOLVER WITH   5 PROCESSORS

     CHECK POINT   START OF SOLVER    

  NUMBER OF EQUATIONS =     34476     NUMBER OF RHS =    1
  NUMBER OF FLOATING PT. OPERATIONS =  7.83E+08

     CHECK POINT  END OF SOLVER       

       ELAPSED USER TIME (SEC)      =  0.10000    
       ELAPSED SYSTEM TIME (SEC)    =   0.0000    
       ELAPSED TOTAL CPU TIME (SEC) =  0.10000    
       ELAPSED WALLCLOCK TIME (SEC) =          0

               CONVERGENCE CHECKS FOR EQUILIBRIUM ITERATION     3


 AVERAGE FORCE                      9.227E-05   TIME AVG. FORCE       5.425E-05
 LARGEST RESIDUAL FORCE             1.923E-08   AT NODE        460   DOF  2
   INSTANCE: WAIST-UP-1                                                                      
 LARGEST INCREMENT OF DISP.         2.345E-04   AT NODE        288   DOF  3
   INSTANCE: WAIST-UP-1                                                                      
 LARGEST CORRECTION TO DISP.       -2.063E-07   AT NODE        499   DOF  3
   INSTANCE: WAIST-UP-1                                                                      
          THE FORCE     EQUILIBRIUM EQUATIONS HAVE CONVERGED

 AVERAGE MOMENT                     1.248E-08   TIME AVG. MOMENT      1.000E-02
 LARGEST RESIDUAL MOMENT            7.131E-12   AT NODE        771   DOF  4
   INSTANCE: WAIST-MIDDLE-1                                                                  
 LARGEST INCREMENT OF ROTATION     -1.533E-02   AT NODE         90   DOF  4
   INSTANCE: WAIST-UP-1                                                                      
 LARGEST CORRECTION TO ROTATION     2.278E-05   AT NODE         90   DOF  4
   INSTANCE: WAIST-UP-1                                                                      
          THERE IS ZERO MOMENT    EVERYWHERE
 

 ***WARNING: THERE IS ZERO MOMENT EVERYWHERE IN THE MODEL BASED ON THE DEFAULT 
             CRITERION. PLEASE CHECK THE VALUE OF THE AVERAGE MOMENT DURING THE 
             CURRENT ITERATION TO VERIFY THAT THE MOMENT IS SMALL ENOUGH TO BE 
             TREATED AS ZERO. IF NOT, PLEASE USE THE SOLUTION CONTROLS TO RESET 
             THE CRITERION FOR ZERO MOMENT.
          TIME INCREMENT MAY NOW INCREASE TO    3.375E-03

 ITERATION SUMMARY FOR THE INCREMENT:   3 TOTAL ITERATIONS, OF WHICH
   0 ARE SEVERE DISCONTINUITY ITERATIONS AND  3 ARE EQUILIBRIUM ITERATIONS.

 TIME INCREMENT COMPLETED  2.250E-03,  FRACTION OF STEP COMPLETED  5.750E-03
 STEP TIME COMPLETED       5.750E-03,  TOTAL TIME COMPLETED        5.750E-03


  INCREMENT     5 STARTS. ATTEMPT NUMBER  1, TIME INCREMENT  3.375E-03

 ==> quasi-Newton: performing full factorization

  USING THE DIRECT SOLVER WITH   5 PROCESSORS

     CHECK POINT   START OF SOLVER    

  NUMBER OF EQUATIONS =     34476     NUMBER OF RHS =    1
  NUMBER OF FLOATING PT. OPERATIONS =  7.83E+08

     CHECK POINT  END OF SOLVER       

       ELAPSED USER TIME (SEC)      =  0.50000    
       ELAPSED SYSTEM TIME (SEC)    =  0.10000    
       ELAPSED TOTAL CPU TIME (SEC) =  0.60000    
       ELAPSED WALLCLOCK TIME (SEC) =          0

               CONVERGENCE CHECKS FOR EQUILIBRIUM ITERATION     1


 AVERAGE FORCE                      1.390E-04   TIME AVG. FORCE       8.248E-05
 LARGEST RESIDUAL FORCE             3.409E-05   AT NODE        131   DOF  2
   INSTANCE: WAIST-UP-1                                                                      
 LARGEST INCREMENT OF DISP.         2.731E-04   AT NODE        288   DOF  3
   INSTANCE: WAIST-UP-1                                                                      
 LARGEST CORRECTION TO DISP.       -8.049E-05   AT NODE        499   DOF  3
   INSTANCE: WAIST-UP-1                                                                      
          FORCE     EQUILIBRIUM NOT ACHIEVED WITHIN TOLERANCE.

 AVERAGE MOMENT                     1.834E-08   TIME AVG. MOMENT      1.000E-02
 LARGEST RESIDUAL MOMENT           -2.920E-08   AT NODE        771   DOF  4
   INSTANCE: WAIST-MIDDLE-1                                                                  
 LARGEST INCREMENT OF ROTATION     -1.748E-02   AT NODE         90   DOF  4
   INSTANCE: WAIST-UP-1                                                                      
 LARGEST CORRECTION TO ROTATION     5.513E-03   AT NODE         90   DOF  4
   INSTANCE: WAIST-UP-1                                                                      
          THERE IS ZERO MOMENT    EVERYWHERE
 

 ***WARNING: THERE IS ZERO MOMENT EVERYWHERE IN THE MODEL BASED ON THE DEFAULT 
             CRITERION. PLEASE CHECK THE VALUE OF THE AVERAGE MOMENT DURING THE 
             CURRENT ITERATION TO VERIFY THAT THE MOMENT IS SMALL ENOUGH TO BE 
             TREATED AS ZERO. IF NOT, PLEASE USE THE SOLUTION CONTROLS TO RESET 
             THE CRITERION FOR ZERO MOMENT.

 ==> quasi-Newton: applying BFGS update  1

  USING THE DIRECT SOLVER WITH   5 PROCESSORS

     CHECK POINT   START OF SOLVER    

  NUMBER OF EQUATIONS =     34476     NUMBER OF RHS =    1
  NUMBER OF FLOATING PT. OPERATIONS =  7.83E+08

     CHECK POINT  END OF SOLVER       

       ELAPSED USER TIME (SEC)      =  0.10000    
       ELAPSED SYSTEM TIME (SEC)    =   0.0000    
       ELAPSED TOTAL CPU TIME (SEC) =  0.10000    
       ELAPSED WALLCLOCK TIME (SEC) =          0
 ==> quasi-Newton:  skipped BFGS update  1

               CONVERGENCE CHECKS FOR EQUILIBRIUM ITERATION     2


 AVERAGE FORCE                      1.389E-04   TIME AVG. FORCE       8.246E-05
 LARGEST RESIDUAL FORCE             4.580E-06   AT NODE        460   DOF  2
   INSTANCE: WAIST-UP-1                                                                      
 LARGEST INCREMENT OF DISP.         2.702E-04   AT NODE        288   DOF  3
   INSTANCE: WAIST-UP-1                                                                      
 LARGEST CORRECTION TO DISP.       -3.515E-06   AT NODE        499   DOF  3
   INSTANCE: WAIST-UP-1                                                                      
          FORCE     EQUILIBRIUM NOT ACHIEVED WITHIN TOLERANCE.

 AVERAGE MOMENT                     1.832E-08   TIME AVG. MOMENT      1.000E-02
 LARGEST RESIDUAL MOMENT            1.517E-09   AT NODE        460   DOF  4
   INSTANCE: WAIST-UP-1                                                                      
 LARGEST INCREMENT OF ROTATION     -1.712E-02   AT NODE         90   DOF  4
   INSTANCE: WAIST-UP-1                                                                      
 LARGEST CORRECTION TO ROTATION     3.657E-04   AT NODE         90   DOF  4
   INSTANCE: WAIST-UP-1                                                                      
          THERE IS ZERO MOMENT    EVERYWHERE
 

 ***WARNING: THERE IS ZERO MOMENT EVERYWHERE IN THE MODEL BASED ON THE DEFAULT 
             CRITERION. PLEASE CHECK THE VALUE OF THE AVERAGE MOMENT DURING THE 
             CURRENT ITERATION TO VERIFY THAT THE MOMENT IS SMALL ENOUGH TO BE 
             TREATED AS ZERO. IF NOT, PLEASE USE THE SOLUTION CONTROLS TO RESET 
             THE CRITERION FOR ZERO MOMENT.

 ==> quasi-Newton: applying BFGS update  1

  USING THE DIRECT SOLVER WITH   5 PROCESSORS

     CHECK POINT   START OF SOLVER    

  NUMBER OF EQUATIONS =     34476     NUMBER OF RHS =    1
  NUMBER OF FLOATING PT. OPERATIONS =  7.83E+08

     CHECK POINT  END OF SOLVER       

       ELAPSED USER TIME (SEC)      =  0.30000    
       ELAPSED SYSTEM TIME (SEC)    =   0.0000    
       ELAPSED TOTAL CPU TIME (SEC) =  0.30000    
       ELAPSED WALLCLOCK TIME (SEC) =          0

               CONVERGENCE CHECKS FOR EQUILIBRIUM ITERATION     3


 AVERAGE FORCE                      1.389E-04   TIME AVG. FORCE       8.245E-05
 LARGEST RESIDUAL FORCE             6.138E-08   AT NODE        460   DOF  2
   INSTANCE: WAIST-UP-1                                                                      
 LARGEST INCREMENT OF DISP.         2.699E-04   AT NODE        288   DOF  3
   INSTANCE: WAIST-UP-1                                                                      
 LARGEST CORRECTION TO DISP.       -3.480E-07   AT NODE        499   DOF  3
   INSTANCE: WAIST-UP-1                                                                      
          THE FORCE     EQUILIBRIUM EQUATIONS HAVE CONVERGED

 AVERAGE MOMENT                     1.832E-08   TIME AVG. MOMENT      1.000E-02
 LARGEST RESIDUAL MOMENT            1.663E-11   AT NODE        771   DOF  4
   INSTANCE: WAIST-MIDDLE-1                                                                  
 LARGEST INCREMENT OF ROTATION     -1.708E-02   AT NODE         90   DOF  4
   INSTANCE: WAIST-UP-1                                                                      
 LARGEST CORRECTION TO ROTATION     3.872E-05   AT NODE         90   DOF  4
   INSTANCE: WAIST-UP-1                                                                      
          THERE IS ZERO MOMENT    EVERYWHERE
 

 ***WARNING: THERE IS ZERO MOMENT EVERYWHERE IN THE MODEL BASED ON THE DEFAULT 
             CRITERION. PLEASE CHECK THE VALUE OF THE AVERAGE MOMENT DURING THE 
             CURRENT ITERATION TO VERIFY THAT THE MOMENT IS SMALL ENOUGH TO BE 
             TREATED AS ZERO. IF NOT, PLEASE USE THE SOLUTION CONTROLS TO RESET 
             THE CRITERION FOR ZERO MOMENT.
          TIME INCREMENT MAY NOW INCREASE TO    5.063E-03

 ITERATION SUMMARY FOR THE INCREMENT:   3 TOTAL ITERATIONS, OF WHICH
   0 ARE SEVERE DISCONTINUITY ITERATIONS AND  3 ARE EQUILIBRIUM ITERATIONS.

 TIME INCREMENT COMPLETED  3.375E-03,  FRACTION OF STEP COMPLETED  9.125E-03
 STEP TIME COMPLETED       9.125E-03,  TOTAL TIME COMPLETED        9.125E-03


  INCREMENT     6 STARTS. ATTEMPT NUMBER  1, TIME INCREMENT  5.063E-03

 ==> quasi-Newton: performing full factorization

  USING THE DIRECT SOLVER WITH   5 PROCESSORS

     CHECK POINT   START OF SOLVER    

  NUMBER OF EQUATIONS =     34476     NUMBER OF RHS =    1
  NUMBER OF FLOATING PT. OPERATIONS =  7.83E+08

     CHECK POINT  END OF SOLVER       

       ELAPSED USER TIME (SEC)      =  0.60000    
       ELAPSED SYSTEM TIME (SEC)    =   0.0000    
       ELAPSED TOTAL CPU TIME (SEC) =  0.60000    
       ELAPSED WALLCLOCK TIME (SEC) =          0

               CONVERGENCE CHECKS FOR EQUILIBRIUM ITERATION     1


 AVERAGE FORCE                      2.037E-04   TIME AVG. FORCE       1.128E-04
 LARGEST RESIDUAL FORCE             4.365E-05   AT NODE        131   DOF  2
   INSTANCE: WAIST-UP-1                                                                      
 LARGEST INCREMENT OF DISP.         3.093E-04   AT NODE        288   DOF  3
   INSTANCE: WAIST-UP-1                                                                      
 LARGEST CORRECTION TO DISP.       -9.559E-05   AT NODE        288   DOF  3
   INSTANCE: WAIST-UP-1                                                                      
          FORCE     EQUILIBRIUM NOT ACHIEVED WITHIN TOLERANCE.

 AVERAGE MOMENT                     2.608E-08   TIME AVG. MOMENT      1.000E-02
 LARGEST RESIDUAL MOMENT           -3.995E-08   AT NODE        771   DOF  4
   INSTANCE: WAIST-MIDDLE-1                                                                  
 LARGEST INCREMENT OF ROTATION     -1.936E-02   AT NODE         22   DOF  4
   INSTANCE: WAIST-UP-1                                                                      
 LARGEST CORRECTION TO ROTATION     6.353E-03   AT NODE         90   DOF  4
   INSTANCE: WAIST-UP-1                                                                      
          THERE IS ZERO MOMENT    EVERYWHERE
 

 ***WARNING: THERE IS ZERO MOMENT EVERYWHERE IN THE MODEL BASED ON THE DEFAULT 
             CRITERION. PLEASE CHECK THE VALUE OF THE AVERAGE MOMENT DURING THE 
             CURRENT ITERATION TO VERIFY THAT THE MOMENT IS SMALL ENOUGH TO BE 
             TREATED AS ZERO. IF NOT, PLEASE USE THE SOLUTION CONTROLS TO RESET 
             THE CRITERION FOR ZERO MOMENT.

 ==> quasi-Newton: applying BFGS update  1

  USING THE DIRECT SOLVER WITH   5 PROCESSORS

     CHECK POINT   START OF SOLVER    

  NUMBER OF EQUATIONS =     34476     NUMBER OF RHS =    1
  NUMBER OF FLOATING PT. OPERATIONS =  7.83E+08

     CHECK POINT  END OF SOLVER       

       ELAPSED USER TIME (SEC)      =  0.10000    
       ELAPSED SYSTEM TIME (SEC)    =  0.10000    
       ELAPSED TOTAL CPU TIME (SEC) =  0.20000    
       ELAPSED WALLCLOCK TIME (SEC) =          0
 ==> quasi-Newton:  skipped BFGS update  1

               CONVERGENCE CHECKS FOR EQUILIBRIUM ITERATION     2


 AVERAGE FORCE                      2.036E-04   TIME AVG. FORCE       1.127E-04
 LARGEST RESIDUAL FORCE             6.102E-06   AT NODE        460   DOF  2
   INSTANCE: WAIST-UP-1                                                                      
 LARGEST INCREMENT OF DISP.         3.058E-04   AT NODE        288   DOF  3
   INSTANCE: WAIST-UP-1                                                                      
 LARGEST CORRECTION TO DISP.       -4.169E-06   AT NODE        499   DOF  3
   INSTANCE: WAIST-UP-1                                                                      
          FORCE     EQUILIBRIUM NOT ACHIEVED WITHIN TOLERANCE.

 AVERAGE MOMENT                     2.605E-08   TIME AVG. MOMENT      1.000E-02
 LARGEST RESIDUAL MOMENT            2.338E-09   AT NODE        460   DOF  4
   INSTANCE: WAIST-UP-1                                                                      
 LARGEST INCREMENT OF ROTATION     -1.893E-02   AT NODE         22   DOF  4
   INSTANCE: WAIST-UP-1                                                                      
 LARGEST CORRECTION TO ROTATION     4.325E-04   AT NODE         90   DOF  4
   INSTANCE: WAIST-UP-1                                                                      
          THERE IS ZERO MOMENT    EVERYWHERE
 

 ***WARNING: THERE IS ZERO MOMENT EVERYWHERE IN THE MODEL BASED ON THE DEFAULT 
             CRITERION. PLEASE CHECK THE VALUE OF THE AVERAGE MOMENT DURING THE 
             CURRENT ITERATION TO VERIFY THAT THE MOMENT IS SMALL ENOUGH TO BE 
             TREATED AS ZERO. IF NOT, PLEASE USE THE SOLUTION CONTROLS TO RESET 
             THE CRITERION FOR ZERO MOMENT.

 ==> quasi-Newton: applying BFGS update  1

  USING THE DIRECT SOLVER WITH   5 PROCESSORS

     CHECK POINT   START OF SOLVER    

  NUMBER OF EQUATIONS =     34476     NUMBER OF RHS =    1
  NUMBER OF FLOATING PT. OPERATIONS =  7.83E+08

     CHECK POINT  END OF SOLVER       

       ELAPSED USER TIME (SEC)      =  0.10000    
       ELAPSED SYSTEM TIME (SEC)    =   0.0000    
       ELAPSED TOTAL CPU TIME (SEC) =  0.10000    
       ELAPSED WALLCLOCK TIME (SEC) =          0

               CONVERGENCE CHECKS FOR EQUILIBRIUM ITERATION     3


 AVERAGE FORCE                      2.036E-04   TIME AVG. FORCE       1.127E-04
 LARGEST RESIDUAL FORCE             1.269E-07   AT NODE        460   DOF  2
   INSTANCE: WAIST-UP-1                                                                      
 LARGEST INCREMENT OF DISP.         3.055E-04   AT NODE        288   DOF  3
   INSTANCE: WAIST-UP-1                                                                      
 LARGEST CORRECTION TO DISP.       -4.242E-07   AT NODE        499   DOF  3
   INSTANCE: WAIST-UP-1                                                                      
          THE FORCE     EQUILIBRIUM EQUATIONS HAVE CONVERGED

 AVERAGE MOMENT                     2.605E-08   TIME AVG. MOMENT      1.000E-02
 LARGEST RESIDUAL MOMENT            3.330E-11   AT NODE         22   DOF  4
   INSTANCE: WAIST-UP-1                                                                      
 LARGEST INCREMENT OF ROTATION     -1.888E-02   AT NODE         22   DOF  4
   INSTANCE: WAIST-UP-1                                                                      
 LARGEST CORRECTION TO ROTATION     4.748E-05   AT NODE         90   DOF  4
   INSTANCE: WAIST-UP-1                                                                      
          THERE IS ZERO MOMENT    EVERYWHERE
 

 ***WARNING: THERE IS ZERO MOMENT EVERYWHERE IN THE MODEL BASED ON THE DEFAULT 
             CRITERION. PLEASE CHECK THE VALUE OF THE AVERAGE MOMENT DURING THE 
             CURRENT ITERATION TO VERIFY THAT THE MOMENT IS SMALL ENOUGH TO BE 
             TREATED AS ZERO. IF NOT, PLEASE USE THE SOLUTION CONTROLS TO RESET 
             THE CRITERION FOR ZERO MOMENT.
          TIME INCREMENT MAY NOW INCREASE TO    7.594E-03

 ITERATION SUMMARY FOR THE INCREMENT:   3 TOTAL ITERATIONS, OF WHICH
   0 ARE SEVERE DISCONTINUITY ITERATIONS AND  3 ARE EQUILIBRIUM ITERATIONS.

 TIME INCREMENT COMPLETED  5.063E-03,  FRACTION OF STEP COMPLETED  1.419E-02
 STEP TIME COMPLETED       1.419E-02,  TOTAL TIME COMPLETED        1.419E-02


  INCREMENT     7 STARTS. ATTEMPT NUMBER  1, TIME INCREMENT  7.594E-03

 ==> quasi-Newton: performing full factorization

  USING THE DIRECT SOLVER WITH   5 PROCESSORS

     CHECK POINT   START OF SOLVER    

  NUMBER OF EQUATIONS =     34476     NUMBER OF RHS =    1
  NUMBER OF FLOATING PT. OPERATIONS =  7.83E+08

     CHECK POINT  END OF SOLVER       

       ELAPSED USER TIME (SEC)      =  0.50000    
       ELAPSED SYSTEM TIME (SEC)    =  0.10000    
       ELAPSED TOTAL CPU TIME (SEC) =  0.60000    
       ELAPSED WALLCLOCK TIME (SEC) =          0

               CONVERGENCE CHECKS FOR EQUILIBRIUM ITERATION     1


 AVERAGE FORCE                      2.978E-04   TIME AVG. FORCE       1.498E-04
 LARGEST RESIDUAL FORCE             5.044E-05   AT NODE        131   DOF  2
   INSTANCE: WAIST-UP-1                                                                      
 LARGEST INCREMENT OF DISP.         3.519E-04   AT NODE        217   DOF  3
   INSTANCE: WAIST-UP-1                                                                      
 LARGEST CORRECTION TO DISP.       -1.098E-04   AT NODE        288   DOF  3
   INSTANCE: WAIST-UP-1                                                                      
          FORCE     EQUILIBRIUM NOT ACHIEVED WITHIN TOLERANCE.

 AVERAGE MOMENT                     3.627E-08   TIME AVG. MOMENT      1.000E-02
 LARGEST RESIDUAL MOMENT           -5.045E-08   AT NODE        771   DOF  4
   INSTANCE: WAIST-MIDDLE-1                                                                  
 LARGEST INCREMENT OF ROTATION      2.271E-02   AT NODE        102   DOF  4
   INSTANCE: WAIST-UP-1                                                                      
 LARGEST CORRECTION TO ROTATION     7.032E-03   AT NODE         90   DOF  4
   INSTANCE: WAIST-UP-1                                                                      
          THERE IS ZERO MOMENT    EVERYWHERE
 

 ***WARNING: THERE IS ZERO MOMENT EVERYWHERE IN THE MODEL BASED ON THE DEFAULT 
             CRITERION. PLEASE CHECK THE VALUE OF THE AVERAGE MOMENT DURING THE 
             CURRENT ITERATION TO VERIFY THAT THE MOMENT IS SMALL ENOUGH TO BE 
             TREATED AS ZERO. IF NOT, PLEASE USE THE SOLUTION CONTROLS TO RESET 
             THE CRITERION FOR ZERO MOMENT.

 ==> quasi-Newton: applying BFGS update  1

  USING THE DIRECT SOLVER WITH   5 PROCESSORS

     CHECK POINT   START OF SOLVER    

  NUMBER OF EQUATIONS =     34476     NUMBER OF RHS =    1
  NUMBER OF FLOATING PT. OPERATIONS =  7.83E+08

     CHECK POINT  END OF SOLVER       

       ELAPSED USER TIME (SEC)      =  0.20000    
       ELAPSED SYSTEM TIME (SEC)    =   0.0000    
       ELAPSED TOTAL CPU TIME (SEC) =  0.20000    
       ELAPSED WALLCLOCK TIME (SEC) =          0
 ==> quasi-Newton:  skipped BFGS update  1

               CONVERGENCE CHECKS FOR EQUILIBRIUM ITERATION     2


 AVERAGE FORCE                      2.976E-04   TIME AVG. FORCE       1.497E-04
 LARGEST RESIDUAL FORCE            -8.272E-06   AT NODE         91   DOF  2
   INSTANCE: WAIST-UP-1                                                                      
 LARGEST INCREMENT OF DISP.         3.489E-04   AT NODE        217   DOF  3
   INSTANCE: WAIST-UP-1                                                                      
 LARGEST CORRECTION TO DISP.       -4.421E-06   AT NODE        499   DOF  3
   INSTANCE: WAIST-UP-1                                                                      
          FORCE     EQUILIBRIUM NOT ACHIEVED WITHIN TOLERANCE.

 AVERAGE MOMENT                     3.623E-08   TIME AVG. MOMENT      1.000E-02
 LARGEST RESIDUAL MOMENT            3.119E-09   AT NODE        460   DOF  4
   INSTANCE: WAIST-UP-1                                                                      
 LARGEST INCREMENT OF ROTATION      2.233E-02   AT NODE        102   DOF  4
   INSTANCE: WAIST-UP-1                                                                      
 LARGEST CORRECTION TO ROTATION     4.679E-04   AT NODE         90   DOF  4
   INSTANCE: WAIST-UP-1                                                                      
          THERE IS ZERO MOMENT    EVERYWHERE
 

 ***WARNING: THERE IS ZERO MOMENT EVERYWHERE IN THE MODEL BASED ON THE DEFAULT 
             CRITERION. PLEASE CHECK THE VALUE OF THE AVERAGE MOMENT DURING THE 
             CURRENT ITERATION TO VERIFY THAT THE MOMENT IS SMALL ENOUGH TO BE 
             TREATED AS ZERO. IF NOT, PLEASE USE THE SOLUTION CONTROLS TO RESET 
             THE CRITERION FOR ZERO MOMENT.

 ==> quasi-Newton: applying BFGS update  1

  USING THE DIRECT SOLVER WITH   5 PROCESSORS

     CHECK POINT   START OF SOLVER    

  NUMBER OF EQUATIONS =     34476     NUMBER OF RHS =    1
  NUMBER OF FLOATING PT. OPERATIONS =  7.83E+08

     CHECK POINT  END OF SOLVER       

       ELAPSED USER TIME (SEC)      =  0.10000    
       ELAPSED SYSTEM TIME (SEC)    =  0.10000    
       ELAPSED TOTAL CPU TIME (SEC) =  0.20000    
       ELAPSED WALLCLOCK TIME (SEC) =          0

               CONVERGENCE CHECKS FOR EQUILIBRIUM ITERATION     3


 AVERAGE FORCE                      2.975E-04   TIME AVG. FORCE       1.497E-04
 LARGEST RESIDUAL FORCE             1.604E-07   AT NODE        460   DOF  2
   INSTANCE: WAIST-UP-1                                                                      
 LARGEST INCREMENT OF DISP.         3.486E-04   AT NODE        217   DOF  3
   INSTANCE: WAIST-UP-1                                                                      
 LARGEST CORRECTION TO DISP.       -4.388E-07   AT NODE        499   DOF  3
   INSTANCE: WAIST-UP-1                                                                      
          THE FORCE     EQUILIBRIUM EQUATIONS HAVE CONVERGED

 AVERAGE MOMENT                     3.623E-08   TIME AVG. MOMENT      1.000E-02
 LARGEST RESIDUAL MOMENT            4.675E-11   AT NODE         22   DOF  4
   INSTANCE: WAIST-UP-1                                                                      
 LARGEST INCREMENT OF ROTATION      2.230E-02   AT NODE        102   DOF  4
   INSTANCE: WAIST-UP-1                                                                      
 LARGEST CORRECTION TO ROTATION     5.045E-05   AT NODE         90   DOF  4
   INSTANCE: WAIST-UP-1                                                                      
          THERE IS ZERO MOMENT    EVERYWHERE
 

 ***WARNING: THERE IS ZERO MOMENT EVERYWHERE IN THE MODEL BASED ON THE DEFAULT 
             CRITERION. PLEASE CHECK THE VALUE OF THE AVERAGE MOMENT DURING THE 
             CURRENT ITERATION TO VERIFY THAT THE MOMENT IS SMALL ENOUGH TO BE 
             TREATED AS ZERO. IF NOT, PLEASE USE THE SOLUTION CONTROLS TO RESET 
             THE CRITERION FOR ZERO MOMENT.
          TIME INCREMENT MAY NOW INCREASE TO    1.139E-02

 ITERATION SUMMARY FOR THE INCREMENT:   3 TOTAL ITERATIONS, OF WHICH
   0 ARE SEVERE DISCONTINUITY ITERATIONS AND  3 ARE EQUILIBRIUM ITERATIONS.

 TIME INCREMENT COMPLETED  7.594E-03,  FRACTION OF STEP COMPLETED  2.178E-02
 STEP TIME COMPLETED       2.178E-02,  TOTAL TIME COMPLETED        2.178E-02


  INCREMENT     8 STARTS. ATTEMPT NUMBER  1, TIME INCREMENT  1.139E-02

 ==> quasi-Newton: performing full factorization

  USING THE DIRECT SOLVER WITH   5 PROCESSORS

     CHECK POINT   START OF SOLVER    

  NUMBER OF EQUATIONS =     34476     NUMBER OF RHS =    1
  NUMBER OF FLOATING PT. OPERATIONS =  7.83E+08

     CHECK POINT  END OF SOLVER       

       ELAPSED USER TIME (SEC)      =  0.50000    
       ELAPSED SYSTEM TIME (SEC)    =  0.10000    
       ELAPSED TOTAL CPU TIME (SEC) =  0.60000    
       ELAPSED WALLCLOCK TIME (SEC) =          0

               CONVERGENCE CHECKS FOR EQUILIBRIUM ITERATION     1


 AVERAGE FORCE                      4.329E-04   TIME AVG. FORCE       1.969E-04
 LARGEST RESIDUAL FORCE            -8.444E-05   AT NODE         91   DOF  2
   INSTANCE: WAIST-UP-1                                                                      
 LARGEST INCREMENT OF DISP.         4.128E-04   AT NODE        217   DOF  3
   INSTANCE: WAIST-UP-1                                                                      
 LARGEST CORRECTION TO DISP.       -1.206E-04   AT NODE        288   DOF  3
   INSTANCE: WAIST-UP-1                                                                      
          FORCE     EQUILIBRIUM NOT ACHIEVED WITHIN TOLERANCE.

 AVERAGE MOMENT                     4.980E-08   TIME AVG. MOMENT      1.000E-02
 LARGEST RESIDUAL MOMENT           -5.914E-08   AT NODE        771   DOF  4
   INSTANCE: WAIST-MIDDLE-1                                                                  
 LARGEST INCREMENT OF ROTATION      2.799E-02   AT NODE        338   DOF  4
   INSTANCE: WAIST-UP-1                                                                      
 LARGEST CORRECTION TO ROTATION     7.601E-03   AT NODE         90   DOF  4
   INSTANCE: WAIST-UP-1                                                                      
          THERE IS ZERO MOMENT    EVERYWHERE
 

 ***WARNING: THERE IS ZERO MOMENT EVERYWHERE IN THE MODEL BASED ON THE DEFAULT 
             CRITERION. PLEASE CHECK THE VALUE OF THE AVERAGE MOMENT DURING THE 
             CURRENT ITERATION TO VERIFY THAT THE MOMENT IS SMALL ENOUGH TO BE 
             TREATED AS ZERO. IF NOT, PLEASE USE THE SOLUTION CONTROLS TO RESET 
             THE CRITERION FOR ZERO MOMENT.

 ==> quasi-Newton: applying BFGS update  1

  USING THE DIRECT SOLVER WITH   5 PROCESSORS

     CHECK POINT   START OF SOLVER    

  NUMBER OF EQUATIONS =     34476     NUMBER OF RHS =    1
  NUMBER OF FLOATING PT. OPERATIONS =  7.83E+08

     CHECK POINT  END OF SOLVER       

       ELAPSED USER TIME (SEC)      =  0.10000    
       ELAPSED SYSTEM TIME (SEC)    =   0.0000    
       ELAPSED TOTAL CPU TIME (SEC) =  0.10000    
       ELAPSED WALLCLOCK TIME (SEC) =          0
 ==> quasi-Newton:  skipped BFGS update  1

               CONVERGENCE CHECKS FOR EQUILIBRIUM ITERATION     2


 AVERAGE FORCE                      4.324E-04   TIME AVG. FORCE       1.968E-04
 LARGEST RESIDUAL FORCE            -1.935E-05   AT NODE         91   DOF  2
   INSTANCE: WAIST-UP-1                                                                      
 LARGEST INCREMENT OF DISP.         4.096E-04   AT NODE        217   DOF  3
   INSTANCE: WAIST-UP-1                                                                      
 LARGEST CORRECTION TO DISP.       -4.321E-06   AT NODE        499   DOF  3
   INSTANCE: WAIST-UP-1                                                                      
          FORCE     EQUILIBRIUM NOT ACHIEVED WITHIN TOLERANCE.

 AVERAGE MOMENT                     4.974E-08   TIME AVG. MOMENT      1.000E-02
 LARGEST RESIDUAL MOMENT            3.816E-09   AT NODE        460   DOF  4
   INSTANCE: WAIST-UP-1                                                                      
 LARGEST INCREMENT OF ROTATION      2.761E-02   AT NODE        338   DOF  4
   INSTANCE: WAIST-UP-1                                                                      
 LARGEST CORRECTION TO ROTATION    -6.930E-04   AT NODE         35   DOF  4
   INSTANCE: WAIST-UP-1                                                                      
          THERE IS ZERO MOMENT    EVERYWHERE
 

 ***WARNING: THERE IS ZERO MOMENT EVERYWHERE IN THE MODEL BASED ON THE DEFAULT 
             CRITERION. PLEASE CHECK THE VALUE OF THE AVERAGE MOMENT DURING THE 
             CURRENT ITERATION TO VERIFY THAT THE MOMENT IS SMALL ENOUGH TO BE 
             TREATED AS ZERO. IF NOT, PLEASE USE THE SOLUTION CONTROLS TO RESET 
             THE CRITERION FOR ZERO MOMENT.

 ==> quasi-Newton: applying BFGS update  1

  USING THE DIRECT SOLVER WITH   5 PROCESSORS

     CHECK POINT   START OF SOLVER    

  NUMBER OF EQUATIONS =     34476     NUMBER OF RHS =    1
  NUMBER OF FLOATING PT. OPERATIONS =  7.83E+08

     CHECK POINT  END OF SOLVER       

       ELAPSED USER TIME (SEC)      =  0.10000    
       ELAPSED SYSTEM TIME (SEC)    =   0.0000    
       ELAPSED TOTAL CPU TIME (SEC) =  0.10000    
       ELAPSED WALLCLOCK TIME (SEC) =          0

               CONVERGENCE CHECKS FOR EQUILIBRIUM ITERATION     3


 AVERAGE FORCE                      4.324E-04   TIME AVG. FORCE       1.968E-04
 LARGEST RESIDUAL FORCE            -3.280E-07   AT NODE        252   DOF  2
   INSTANCE: WAIST-UP-1                                                                      
 LARGEST INCREMENT OF DISP.         4.094E-04   AT NODE        217   DOF  3
   INSTANCE: WAIST-UP-1                                                                      
 LARGEST CORRECTION TO DISP.       -4.600E-07   AT NODE         50   DOF  3
   INSTANCE: WAIST-UP-1                                                                      
          THE FORCE     EQUILIBRIUM EQUATIONS HAVE CONVERGED

 AVERAGE MOMENT                     4.974E-08   TIME AVG. MOMENT      1.000E-02
 LARGEST RESIDUAL MOMENT           -8.260E-11   AT NODE        227   DOF  5
   INSTANCE: WAIST-UP-1                                                                      
 LARGEST INCREMENT OF ROTATION      2.758E-02   AT NODE        338   DOF  4
   INSTANCE: WAIST-UP-1                                                                      
 LARGEST CORRECTION TO ROTATION    -7.923E-05   AT NODE         35   DOF  4
   INSTANCE: WAIST-UP-1                                                                      
          THERE IS ZERO MOMENT    EVERYWHERE
 

 ***WARNING: THERE IS ZERO MOMENT EVERYWHERE IN THE MODEL BASED ON THE DEFAULT 
             CRITERION. PLEASE CHECK THE VALUE OF THE AVERAGE MOMENT DURING THE 
             CURRENT ITERATION TO VERIFY THAT THE MOMENT IS SMALL ENOUGH TO BE 
             TREATED AS ZERO. IF NOT, PLEASE USE THE SOLUTION CONTROLS TO RESET 
             THE CRITERION FOR ZERO MOMENT.
          TIME INCREMENT MAY NOW INCREASE TO    1.709E-02

 ITERATION SUMMARY FOR THE INCREMENT:   3 TOTAL ITERATIONS, OF WHICH
   0 ARE SEVERE DISCONTINUITY ITERATIONS AND  3 ARE EQUILIBRIUM ITERATIONS.

 TIME INCREMENT COMPLETED  1.139E-02,  FRACTION OF STEP COMPLETED  3.317E-02
 STEP TIME COMPLETED       3.317E-02,  TOTAL TIME COMPLETED        3.317E-02


  INCREMENT     9 STARTS. ATTEMPT NUMBER  1, TIME INCREMENT  1.709E-02

 ==> quasi-Newton: performing full factorization

  USING THE DIRECT SOLVER WITH   5 PROCESSORS

     CHECK POINT   START OF SOLVER    

  NUMBER OF EQUATIONS =     34476     NUMBER OF RHS =    1
  NUMBER OF FLOATING PT. OPERATIONS =  7.83E+08

     CHECK POINT  END OF SOLVER       

       ELAPSED USER TIME (SEC)      =  0.50000    
       ELAPSED SYSTEM TIME (SEC)    =  0.10000    
       ELAPSED TOTAL CPU TIME (SEC) =  0.60000    
       ELAPSED WALLCLOCK TIME (SEC) =          0

               CONVERGENCE CHECKS FOR EQUILIBRIUM ITERATION     1


 AVERAGE FORCE                      6.272E-04   TIME AVG. FORCE       2.583E-04
 LARGEST RESIDUAL FORCE            -1.180E-04   AT NODE         91   DOF  2
   INSTANCE: WAIST-UP-1                                                                      
 LARGEST INCREMENT OF DISP.         4.918E-04   AT NODE        217   DOF  3
   INSTANCE: WAIST-UP-1                                                                      
 LARGEST CORRECTION TO DISP.       -1.287E-04   AT NODE        288   DOF  3
   INSTANCE: WAIST-UP-1                                                                      
          FORCE     EQUILIBRIUM NOT ACHIEVED WITHIN TOLERANCE.

 AVERAGE MOMENT                     6.801E-08   TIME AVG. MOMENT      1.000E-02
 LARGEST RESIDUAL MOMENT           -6.639E-08   AT NODE        771   DOF  4
   INSTANCE: WAIST-MIDDLE-1                                                                  
 LARGEST INCREMENT OF ROTATION      3.415E-02   AT NODE        338   DOF  4
   INSTANCE: WAIST-UP-1                                                                      
 LARGEST CORRECTION TO ROTATION    -8.154E-03   AT NODE        102   DOF  4
   INSTANCE: WAIST-UP-1                                                                      
          THERE IS ZERO MOMENT    EVERYWHERE
 

 ***WARNING: THERE IS ZERO MOMENT EVERYWHERE IN THE MODEL BASED ON THE DEFAULT 
             CRITERION. PLEASE CHECK THE VALUE OF THE AVERAGE MOMENT DURING THE 
             CURRENT ITERATION TO VERIFY THAT THE MOMENT IS SMALL ENOUGH TO BE 
             TREATED AS ZERO. IF NOT, PLEASE USE THE SOLUTION CONTROLS TO RESET 
             THE CRITERION FOR ZERO MOMENT.

 ==> quasi-Newton: applying BFGS update  1

  USING THE DIRECT SOLVER WITH   5 PROCESSORS

     CHECK POINT   START OF SOLVER    

  NUMBER OF EQUATIONS =     34476     NUMBER OF RHS =    1
  NUMBER OF FLOATING PT. OPERATIONS =  7.83E+08

     CHECK POINT  END OF SOLVER       

       ELAPSED USER TIME (SEC)      =   0.0000    
       ELAPSED SYSTEM TIME (SEC)    =  0.10000    
       ELAPSED TOTAL CPU TIME (SEC) =  0.10000    
       ELAPSED WALLCLOCK TIME (SEC) =          0
 ==> quasi-Newton:  skipped BFGS update  1

               CONVERGENCE CHECKS FOR EQUILIBRIUM ITERATION     2


 AVERAGE FORCE                      6.264E-04   TIME AVG. FORCE       2.582E-04
 LARGEST RESIDUAL FORCE            -3.306E-05   AT NODE         91   DOF  2
   INSTANCE: WAIST-UP-1                                                                      
 LARGEST INCREMENT OF DISP.         4.885E-04   AT NODE         51   DOF  3
   INSTANCE: WAIST-UP-1                                                                      
 LARGEST CORRECTION TO DISP.       -5.434E-06   AT NODE         50   DOF  3
   INSTANCE: WAIST-UP-1                                                                      
          FORCE     EQUILIBRIUM NOT ACHIEVED WITHIN TOLERANCE.

 AVERAGE MOMENT                     6.792E-08   TIME AVG. MOMENT      1.000E-02
 LARGEST RESIDUAL MOMENT            4.523E-09   AT NODE        460   DOF  4
   INSTANCE: WAIST-UP-1                                                                      
 LARGEST INCREMENT OF ROTATION      3.345E-02   AT NODE        338   DOF  4
   INSTANCE: WAIST-UP-1                                                                      
 LARGEST CORRECTION TO ROTATION    -9.833E-04   AT NODE         35   DOF  4
   INSTANCE: WAIST-UP-1                                                                      
          THERE IS ZERO MOMENT    EVERYWHERE
 

 ***WARNING: THERE IS ZERO MOMENT EVERYWHERE IN THE MODEL BASED ON THE DEFAULT 
             CRITERION. PLEASE CHECK THE VALUE OF THE AVERAGE MOMENT DURING THE 
             CURRENT ITERATION TO VERIFY THAT THE MOMENT IS SMALL ENOUGH TO BE 
             TREATED AS ZERO. IF NOT, PLEASE USE THE SOLUTION CONTROLS TO RESET 
             THE CRITERION FOR ZERO MOMENT.

 ==> quasi-Newton: applying BFGS update  1

  USING THE DIRECT SOLVER WITH   5 PROCESSORS

     CHECK POINT   START OF SOLVER    

  NUMBER OF EQUATIONS =     34476     NUMBER OF RHS =    1
  NUMBER OF FLOATING PT. OPERATIONS =  7.83E+08

     CHECK POINT  END OF SOLVER       

       ELAPSED USER TIME (SEC)      =  0.20000    
       ELAPSED SYSTEM TIME (SEC)    =   0.0000    
       ELAPSED TOTAL CPU TIME (SEC) =  0.20000    
       ELAPSED WALLCLOCK TIME (SEC) =          0

               CONVERGENCE CHECKS FOR EQUILIBRIUM ITERATION     3


 AVERAGE FORCE                      6.264E-04   TIME AVG. FORCE       2.582E-04
 LARGEST RESIDUAL FORCE            -7.688E-07   AT NODE        252   DOF  2
   INSTANCE: WAIST-UP-1                                                                      
 LARGEST INCREMENT OF DISP.         4.882E-04   AT NODE         51   DOF  3
   INSTANCE: WAIST-UP-1                                                                      
 LARGEST CORRECTION TO DISP.       -7.290E-07   AT NODE         50   DOF  3
   INSTANCE: WAIST-UP-1                                                                      
          THE FORCE     EQUILIBRIUM EQUATIONS HAVE CONVERGED

 AVERAGE MOMENT                     6.791E-08   TIME AVG. MOMENT      1.000E-02
 LARGEST RESIDUAL MOMENT           -1.834E-10   AT NODE        227   DOF  5
   INSTANCE: WAIST-UP-1                                                                      
 LARGEST INCREMENT OF ROTATION      3.337E-02   AT NODE        338   DOF  4
   INSTANCE: WAIST-UP-1                                                                      
 LARGEST CORRECTION TO ROTATION    -1.300E-04   AT NODE         35   DOF  4
   INSTANCE: WAIST-UP-1                                                                      
          THERE IS ZERO MOMENT    EVERYWHERE
 

 ***WARNING: THERE IS ZERO MOMENT EVERYWHERE IN THE MODEL BASED ON THE DEFAULT 
             CRITERION. PLEASE CHECK THE VALUE OF THE AVERAGE MOMENT DURING THE 
             CURRENT ITERATION TO VERIFY THAT THE MOMENT IS SMALL ENOUGH TO BE 
             TREATED AS ZERO. IF NOT, PLEASE USE THE SOLUTION CONTROLS TO RESET 
             THE CRITERION FOR ZERO MOMENT.
          TIME INCREMENT MAY NOW INCREASE TO    2.563E-02

 ITERATION SUMMARY FOR THE INCREMENT:   3 TOTAL ITERATIONS, OF WHICH
   0 ARE SEVERE DISCONTINUITY ITERATIONS AND  3 ARE EQUILIBRIUM ITERATIONS.

 TIME INCREMENT COMPLETED  1.709E-02,  FRACTION OF STEP COMPLETED  5.026E-02
 STEP TIME COMPLETED       5.026E-02,  TOTAL TIME COMPLETED        5.026E-02


  INCREMENT    10 STARTS. ATTEMPT NUMBER  1, TIME INCREMENT  2.563E-02

 ==> quasi-Newton: performing full factorization

  USING THE DIRECT SOLVER WITH   5 PROCESSORS

     CHECK POINT   START OF SOLVER    

  NUMBER OF EQUATIONS =     34476     NUMBER OF RHS =    1
  NUMBER OF FLOATING PT. OPERATIONS =  7.83E+08

     CHECK POINT  END OF SOLVER       

       ELAPSED USER TIME (SEC)      =  0.50000    
       ELAPSED SYSTEM TIME (SEC)    =  0.10000    
       ELAPSED TOTAL CPU TIME (SEC) =  0.60000    
       ELAPSED WALLCLOCK TIME (SEC) =          0

               CONVERGENCE CHECKS FOR EQUILIBRIUM ITERATION     1


 AVERAGE FORCE                      9.030E-04   TIME AVG. FORCE       3.388E-04
 LARGEST RESIDUAL FORCE            -1.368E-04   AT NODE         91   DOF  2
   INSTANCE: WAIST-UP-1                                                                      
 LARGEST INCREMENT OF DISP.         6.095E-04   AT NODE        484   DOF  3
   INSTANCE: WAIST-UP-1                                                                      
 LARGEST CORRECTION TO DISP.       -1.369E-04   AT NODE        288   DOF  3
   INSTANCE: WAIST-UP-1                                                                      
          FORCE     EQUILIBRIUM NOT ACHIEVED WITHIN TOLERANCE.

 AVERAGE MOMENT                     9.271E-08   TIME AVG. MOMENT      1.000E-02
 LARGEST RESIDUAL MOMENT           -9.356E-08   AT NODE          7   DOF  4
   INSTANCE: WAIST-UP-1                                                                      
 LARGEST INCREMENT OF ROTATION      4.064E-02   AT NODE        338   DOF  4
   INSTANCE: WAIST-UP-1                                                                      
 LARGEST CORRECTION TO ROTATION    -9.419E-03   AT NODE        338   DOF  4
   INSTANCE: WAIST-UP-1                                                                      
          THERE IS ZERO MOMENT    EVERYWHERE
 

 ***WARNING: THERE IS ZERO MOMENT EVERYWHERE IN THE MODEL BASED ON THE DEFAULT 
             CRITERION. PLEASE CHECK THE VALUE OF THE AVERAGE MOMENT DURING THE 
             CURRENT ITERATION TO VERIFY THAT THE MOMENT IS SMALL ENOUGH TO BE 
             TREATED AS ZERO. IF NOT, PLEASE USE THE SOLUTION CONTROLS TO RESET 
             THE CRITERION FOR ZERO MOMENT.

 ==> quasi-Newton: applying BFGS update  1

  USING THE DIRECT SOLVER WITH   5 PROCESSORS

     CHECK POINT   START OF SOLVER    

  NUMBER OF EQUATIONS =     34476     NUMBER OF RHS =    1
  NUMBER OF FLOATING PT. OPERATIONS =  7.83E+08

     CHECK POINT  END OF SOLVER       

       ELAPSED USER TIME (SEC)      =  0.20000    
       ELAPSED SYSTEM TIME (SEC)    =   0.0000    
       ELAPSED TOTAL CPU TIME (SEC) =  0.20000    
       ELAPSED WALLCLOCK TIME (SEC) =          0
 ==> quasi-Newton:  skipped BFGS update  1

               CONVERGENCE CHECKS FOR EQUILIBRIUM ITERATION     2


 AVERAGE FORCE                      9.017E-04   TIME AVG. FORCE       3.386E-04
 LARGEST RESIDUAL FORCE            -4.596E-05   AT NODE         91   DOF  2
   INSTANCE: WAIST-UP-1                                                                      
 LARGEST INCREMENT OF DISP.         6.059E-04   AT NODE        484   DOF  3
   INSTANCE: WAIST-UP-1                                                                      
 LARGEST CORRECTION TO DISP.        6.907E-06   AT NODE        291   DOF  3
   INSTANCE: WAIST-MIDDLE-1                                                                  
          FORCE     EQUILIBRIUM NOT ACHIEVED WITHIN TOLERANCE.

 AVERAGE MOMENT                     9.257E-08   TIME AVG. MOMENT      1.000E-02
 LARGEST RESIDUAL MOMENT           -8.371E-09   AT NODE        320   DOF  4
   INSTANCE: WAIST-UP-1                                                                      
 LARGEST INCREMENT OF ROTATION      3.956E-02   AT NODE        338   DOF  4
   INSTANCE: WAIST-UP-1                                                                      
 LARGEST CORRECTION TO ROTATION    -1.225E-03   AT NODE         35   DOF  4
   INSTANCE: WAIST-UP-1                                                                      
          THERE IS ZERO MOMENT    EVERYWHERE
 

 ***WARNING: THERE IS ZERO MOMENT EVERYWHERE IN THE MODEL BASED ON THE DEFAULT 
             CRITERION. PLEASE CHECK THE VALUE OF THE AVERAGE MOMENT DURING THE 
             CURRENT ITERATION TO VERIFY THAT THE MOMENT IS SMALL ENOUGH TO BE 
             TREATED AS ZERO. IF NOT, PLEASE USE THE SOLUTION CONTROLS TO RESET 
             THE CRITERION FOR ZERO MOMENT.

 ==> quasi-Newton: applying BFGS update  1

  USING THE DIRECT SOLVER WITH   5 PROCESSORS

     CHECK POINT   START OF SOLVER    

  NUMBER OF EQUATIONS =     34476     NUMBER OF RHS =    1
  NUMBER OF FLOATING PT. OPERATIONS =  7.83E+08

     CHECK POINT  END OF SOLVER       

       ELAPSED USER TIME (SEC)      =  0.10000    
       ELAPSED SYSTEM TIME (SEC)    =  0.10000    
       ELAPSED TOTAL CPU TIME (SEC) =  0.20000    
       ELAPSED WALLCLOCK TIME (SEC) =          0

               CONVERGENCE CHECKS FOR EQUILIBRIUM ITERATION     3


 AVERAGE FORCE                      9.016E-04   TIME AVG. FORCE       3.386E-04
 LARGEST RESIDUAL FORCE            -1.119E-06   AT NODE        252   DOF  2
   INSTANCE: WAIST-UP-1                                                                      
 LARGEST INCREMENT OF DISP.         6.056E-04   AT NODE        484   DOF  3
   INSTANCE: WAIST-UP-1                                                                      
 LARGEST CORRECTION TO DISP.        1.250E-06   AT NODE        148   DOF  3
   INSTANCE: WAIST-MIDDLE-1                                                                  
          THE FORCE     EQUILIBRIUM EQUATIONS HAVE CONVERGED

 AVERAGE MOMENT                     9.255E-08   TIME AVG. MOMENT      1.000E-02
 LARGEST RESIDUAL MOMENT           -3.606E-10   AT NODE        227   DOF  5
   INSTANCE: WAIST-UP-1                                                                      
 LARGEST INCREMENT OF ROTATION      3.942E-02   AT NODE        338   DOF  4
   INSTANCE: WAIST-UP-1                                                                      
 LARGEST CORRECTION TO ROTATION    -1.751E-04   AT NODE         35   DOF  4
   INSTANCE: WAIST-UP-1                                                                      
          THERE IS ZERO MOMENT    EVERYWHERE
 

 ***WARNING: THERE IS ZERO MOMENT EVERYWHERE IN THE MODEL BASED ON THE DEFAULT 
             CRITERION. PLEASE CHECK THE VALUE OF THE AVERAGE MOMENT DURING THE 
             CURRENT ITERATION TO VERIFY THAT THE MOMENT IS SMALL ENOUGH TO BE 
             TREATED AS ZERO. IF NOT, PLEASE USE THE SOLUTION CONTROLS TO RESET 
             THE CRITERION FOR ZERO MOMENT.
          TIME INCREMENT MAY NOW INCREASE TO    3.844E-02

 ITERATION SUMMARY FOR THE INCREMENT:   3 TOTAL ITERATIONS, OF WHICH
   0 ARE SEVERE DISCONTINUITY ITERATIONS AND  3 ARE EQUILIBRIUM ITERATIONS.

 TIME INCREMENT COMPLETED  2.563E-02,  FRACTION OF STEP COMPLETED  7.589E-02
 STEP TIME COMPLETED       7.589E-02,  TOTAL TIME COMPLETED        7.589E-02


  INCREMENT    11 STARTS. ATTEMPT NUMBER  1, TIME INCREMENT  3.844E-02

 ==> quasi-Newton: performing full factorization

  USING THE DIRECT SOLVER WITH   5 PROCESSORS

     CHECK POINT   START OF SOLVER    

  NUMBER OF EQUATIONS =     34476     NUMBER OF RHS =    1
  NUMBER OF FLOATING PT. OPERATIONS =  7.83E+08

     CHECK POINT  END OF SOLVER       

       ELAPSED USER TIME (SEC)      =  0.50000    
       ELAPSED SYSTEM TIME (SEC)    =  0.20000    
       ELAPSED TOTAL CPU TIME (SEC) =  0.70000    
       ELAPSED WALLCLOCK TIME (SEC) =          0

                   53 SEVERE DISCONTINUITIES OCCURRED DURING THIS ITERATION.
                   53 POINTS CHANGED FROM OPEN TO CLOSED

               CONVERGENCE CHECKS FOR SEVERE DISCONTINUITY ITERATION     1

   MAX. PENETRATION ERROR 413.380E-06   AT NODE WAIST-UP-1.548 OF CONTACT PAIR 
   (ASSEMBLY_NDE-35-OUT_CNS_,ASSEMBLY_WAIST-MIDDLE-1_SURF-INN)
   MAX. CONTACT FORCE ERROR 133.095E+03   AT NODE WAIST-UP-1.548 OF CONTACT 
   PAIR (ASSEMBLY_NDE-35-OUT_CNS_,ASSEMBLY_WAIST-MIDDLE-1_SURF-INN)
          PENETRATION ERROR TOO LARGE COMPARED TO DISPLACEMENT INCREMENT.

 AVERAGE FORCE                      1.460E-03   TIME AVG. FORCE       4.632E-04
 LARGEST RESIDUAL FORCE            -0.389       AT NODE        558   DOF  3
   INSTANCE: WAIST-UP-1                                                                      
 LARGEST INCREMENT OF DISP.         7.604E-04   AT NODE        484   DOF  3
   INSTANCE: WAIST-UP-1                                                                      
 LARGEST CORRECTION TO DISP.       -1.571E-04   AT NODE        217   DOF  3
   INSTANCE: WAIST-UP-1                                                                      
          FORCE     EQUILIBRIUM NOT ACHIEVED WITHIN TOLERANCE.

 AVERAGE MOMENT                     1.267E-07   TIME AVG. MOMENT      1.267E-07
 LARGEST RESIDUAL MOMENT           -1.637E-07   AT NODE        150   DOF  4
   INSTANCE: WAIST-UP-1                                                                      
 LARGEST INCREMENT OF ROTATION      5.175E-02   AT NODE        215   DOF  4
   INSTANCE: WAIST-MIDDLE-1                                                                  
 LARGEST CORRECTION TO ROTATION    -1.161E-02   AT NODE        338   DOF  4
   INSTANCE: WAIST-UP-1                                                                      
          MOMENT    EQUILIBRIUM NOT ACHIEVED WITHIN TOLERANCE.

 ==> quasi-Newton: performing full factorization

  USING THE DIRECT SOLVER WITH   5 PROCESSORS

     CHECK POINT   START OF SOLVER    

  NUMBER OF EQUATIONS =     34529     NUMBER OF RHS =    1
  NUMBER OF FLOATING PT. OPERATIONS =  8.33E+08

     CHECK POINT  END OF SOLVER       

       ELAPSED USER TIME (SEC)      =   1.0000    
       ELAPSED SYSTEM TIME (SEC)    =  0.10000    
       ELAPSED TOTAL CPU TIME (SEC) =   1.1000    
       ELAPSED WALLCLOCK TIME (SEC) =          0

                   24 SEVERE DISCONTINUITIES OCCURRED DURING THIS ITERATION.
                   24 POINTS CHANGED FROM CLOSED TO OPEN

               CONVERGENCE CHECKS FOR SEVERE DISCONTINUITY ITERATION     2

   MAX. PENETRATION ERROR -542.412E-09   AT NODE WAIST-UP-1.319 OF CONTACT PAIR 
   (ASSEMBLY_NDE-35-OUT_CNS_,ASSEMBLY_WAIST-MIDDLE-1_SURF-INN)
   MAX. CONTACT FORCE ERROR -174.639       AT NODE WAIST-UP-1.319 OF CONTACT 
   PAIR (ASSEMBLY_NDE-35-OUT_CNS_,ASSEMBLY_WAIST-MIDDLE-1_SURF-INN)
          THE ESTIMATED CONTACT FORCE ERROR IS OUTSIDE OF CONVERGENCE TOLERANCES.

 AVERAGE FORCE                      1.234E-03   TIME AVG. FORCE       4.381E-04
 LARGEST RESIDUAL FORCE            -1.595E-02   AT NODE        238   DOF  3
   INSTANCE: WAIST-UP-1                                                                      
 LARGEST INCREMENT OF DISP.         8.057E-04   AT NODE        237   DOF  3
   INSTANCE: WAIST-UP-1                                                                      
 LARGEST CORRECTION TO DISP.        2.596E-04   AT NODE        208   DOF  3
   INSTANCE: WAIST-MIDDLE-1                                                                  
          FORCE     EQUILIBRIUM NOT ACHIEVED WITHIN TOLERANCE.

 AVERAGE MOMENT                     1.459E-07   TIME AVG. MOMENT      1.459E-07
 LARGEST RESIDUAL MOMENT           -1.591E-07   AT NODE         30   DOF  6
   INSTANCE: WAIST-UP-1                                                                      
 LARGEST INCREMENT OF ROTATION      6.502E-02   AT NODE        238   DOF  4
   INSTANCE: WAIST-MIDDLE-1                                                                  
 LARGEST CORRECTION TO ROTATION    -4.205E-02   AT NODE        113   DOF  4
   INSTANCE: WAIST-MIDDLE-1                                                                  
          MOMENT    EQUILIBRIUM NOT ACHIEVED WITHIN TOLERANCE.

 ==> quasi-Newton: performing full factorization

  USING THE DIRECT SOLVER WITH   5 PROCESSORS

     CHECK POINT   START OF SOLVER    

  NUMBER OF EQUATIONS =     34505     NUMBER OF RHS =    1
  NUMBER OF FLOATING PT. OPERATIONS =  8.34E+08

     CHECK POINT  END OF SOLVER       

       ELAPSED USER TIME (SEC)      =  0.70000    
       ELAPSED SYSTEM TIME (SEC)    =  0.10000    
       ELAPSED TOTAL CPU TIME (SEC) =  0.80000    
       ELAPSED WALLCLOCK TIME (SEC) =          0

                   17 SEVERE DISCONTINUITIES OCCURRED DURING THIS ITERATION.
                    5 POINTS CHANGED FROM OPEN TO CLOSED
                   12 POINTS CHANGED FROM CLOSED TO OPEN

               CONVERGENCE CHECKS FOR SEVERE DISCONTINUITY ITERATION     3
[...]

     CHECK POINT   START OF SOLVER    

     CHECK POINT  END OF SOLVER       

       ELAPSED USER TIME (SEC)      =  0.60000    
       ELAPSED SYSTEM TIME (SEC)    =  0.10000    
       ELAPSED TOTAL CPU TIME (SEC) =  0.70000    
       ELAPSED WALLCLOCK TIME (SEC) =          0

                   10 SEVERE DISCONTINUITIES OCCURRED DURING THIS ITERATION.
                    2 POINTS CHANGED FROM OPEN TO CLOSED
                    8 POINTS CHANGED FROM CLOSED TO OPEN

               CONVERGENCE CHECKS FOR SEVERE DISCONTINUITY ITERATION     2

   MAX. PENETRATION ERROR 4.35048E-06 AT NODE CHEST-RIGHT-1.609 OF CONTACT PAIR 
   (ASSEMBLY_NDE-12345-OUT_CNS_,ASSEMBLY_MEMBRANE-1_SURF-INN)
   MAX. CONTACT FORCE ERROR 85.7193      AT NODE CHEST-RIGHT-1.609 OF CONTACT 
   PAIR (ASSEMBLY_NDE-12345-OUT_CNS_,ASSEMBLY_MEMBRANE-1_SURF-INN)
          THE ESTIMATED CONTACT FORCE ERROR IS OUTSIDE OF CONVERGENCE TOLERANCES.

 AVERAGE FORCE                      3.010E-02   TIME AVG. FORCE       1.987E-02
 LARGEST RESIDUAL FORCE            -3.542E-03   AT NODE        609   DOF  3
   INSTANCE: CHEST-RIGHT-1                                                                   
 LARGEST INCREMENT OF DISP.         1.668E-03   AT NODE        901   DOF  3
   INSTANCE: CHEST-RIGHT-1                                                                   
 LARGEST CORRECTION TO DISP.        1.697E-04   AT NODE       1473   DOF  3
   INSTANCE: MEMBRANE-1                                                                      
          FORCE     EQUILIBRIUM NOT ACHIEVED WITHIN TOLERANCE.

 AVERAGE MOMENT                     2.176E-06   TIME AVG. MOMENT      1.902E-06
 LARGEST RESIDUAL MOMENT           -2.332E-08   AT NODE        479   DOF  4
   INSTANCE: WAIST-UP-1                                                                      
 LARGEST INCREMENT OF ROTATION      4.845E-02   AT NODE         65   DOF  5
   INSTANCE: CHEST-LEFT-1                                                                    
 LARGEST CORRECTION TO ROTATION     1.517E-02   AT NODE        424   DOF  4
   INSTANCE: MEMBRANE-1                                                                      
          MOMENT    EQUILIBRIUM NOT ACHIEVED WITHIN TOLERANCE.

  NUMBER OF EQUATIONS =     35263     NUMBER OF RHS =    1
  NUMBER OF FLOATING PT. OPERATIONS =  2.45E+09

  USING THE DIRECT SOLVER WITH   5 PROCESSORS

     CHECK POINT   START OF SOLVER    

     CHECK POINT  END OF SOLVER       

       ELAPSED USER TIME (SEC)      =  0.80000    
       ELAPSED SYSTEM TIME (SEC)    =   0.0000    
       ELAPSED TOTAL CPU TIME (SEC) =  0.80000    
       ELAPSED WALLCLOCK TIME (SEC) =          0

               CONVERGENCE CHECKS FOR EQUILIBRIUM ITERATION     1

   MAX. PENETRATION ERROR 21.2721E-09  AT NODE CHEST-LEFT-1.498 OF CONTACT PAIR 
   (ASSEMBLY_NDE-12345-OUT_CNS_,ASSEMBLY_MEMBRANE-1_SURF-INN)
   MAX. CONTACT FORCE ERROR 419.134E-03   AT NODE CHEST-LEFT-1.498 OF CONTACT 
   PAIR (ASSEMBLY_NDE-12345-OUT_CNS_,ASSEMBLY_MEMBRANE-1_SURF-INN)
          THE ESTIMATED CONTACT FORCE ERROR IS OUTSIDE OF CONVERGENCE TOLERANCES.

 AVERAGE FORCE                      3.010E-02   TIME AVG. FORCE       1.987E-02
 LARGEST RESIDUAL FORCE            -2.073E-05   AT NODE        498   DOF  3
   INSTANCE: CHEST-LEFT-1                                                                    
 LARGEST INCREMENT OF DISP.         1.668E-03   AT NODE        901   DOF  3
   INSTANCE: CHEST-RIGHT-1                                                                   
 LARGEST CORRECTION TO DISP.        2.712E-06   AT NODE        620   DOF  3
   INSTANCE: MEMBRANE-1                                                                      
          THE FORCE     EQUILIBRIUM EQUATIONS HAVE CONVERGED

 AVERAGE MOMENT                     2.175E-06   TIME AVG. MOMENT      1.902E-06
 LARGEST RESIDUAL MOMENT           -3.565E-09   AT NODE         56   DOF  6
   INSTANCE: MEMBRANE-1                                                                      
 LARGEST INCREMENT OF ROTATION      4.844E-02   AT NODE         65   DOF  5
   INSTANCE: CHEST-LEFT-1                                                                    
 LARGEST CORRECTION TO ROTATION    -2.220E-03   AT NODE        114   DOF  4
   INSTANCE: MEMBRANE-1                                                                      
 ESTIMATE OF ROTATION CORRECTION   -3.394E-04
 MOMENT    EQUILIB. ACCEPTED BASED ON SMALL RESIDUAL AND ESTIMATED CORRECTION

  NUMBER OF EQUATIONS =     35263     NUMBER OF RHS =    1
  NUMBER OF FLOATING PT. OPERATIONS =  2.45E+09

  USING THE DIRECT SOLVER WITH   5 PROCESSORS

     CHECK POINT   START OF SOLVER    

     CHECK POINT  END OF SOLVER       

       ELAPSED USER TIME (SEC)      =  0.80000    
       ELAPSED SYSTEM TIME (SEC)    =  0.10000    
       ELAPSED TOTAL CPU TIME (SEC) =  0.90000    
       ELAPSED WALLCLOCK TIME (SEC) =          0

               CONVERGENCE CHECKS FOR EQUILIBRIUM ITERATION     2

   MAX. PENETRATION ERROR -242.183E-12   AT NODE CHEST-LEFT-1.498 OF CONTACT 
   PAIR (ASSEMBLY_NDE-12345-OUT_CNS_,ASSEMBLY_MEMBRANE-1_SURF-INN)
   MAX. CONTACT FORCE ERROR -4.77184E-03 AT NODE CHEST-LEFT-1.498 OF CONTACT 
   PAIR (ASSEMBLY_NDE-12345-OUT_CNS_,ASSEMBLY_MEMBRANE-1_SURF-INN)
          THE CONTACT CONSTRAINTS HAVE CONVERGED.

 AVERAGE FORCE                      3.010E-02   TIME AVG. FORCE       1.987E-02
 LARGEST RESIDUAL FORCE             2.582E-07   AT NODE        664   DOF  2
   INSTANCE: WAIST-MIDDLE-1                                                                  
 LARGEST INCREMENT OF DISP.         1.668E-03   AT NODE        901   DOF  3
   INSTANCE: CHEST-RIGHT-1                                                                   
 LARGEST CORRECTION TO DISP.        2.182E-08   AT NODE       1130   DOF  3
   INSTANCE: MEMBRANE-1                                                                      
          THE FORCE     EQUILIBRIUM EQUATIONS HAVE CONVERGED

 AVERAGE MOMENT                     2.175E-06   TIME AVG. MOMENT      1.902E-06
 LARGEST RESIDUAL MOMENT            3.195E-10   AT NODE         56   DOF  6
   INSTANCE: MEMBRANE-1                                                                      
 LARGEST INCREMENT OF ROTATION      4.844E-02   AT NODE         65   DOF  5
   INSTANCE: CHEST-LEFT-1                                                                    
 LARGEST CORRECTION TO ROTATION     1.731E-04   AT NODE        114   DOF  4
   INSTANCE: MEMBRANE-1                                                                      
          THE MOMENT    EQUILIBRIUM EQUATIONS HAVE CONVERGED

 ITERATION SUMMARY FOR THE INCREMENT:   4 TOTAL ITERATIONS, OF WHICH
   2 ARE SEVERE DISCONTINUITY ITERATIONS AND  2 ARE EQUILIBRIUM ITERATIONS.

 TIME INCREMENT COMPLETED  0.100    ,  FRACTION OF STEP COMPLETED  0.904    
 STEP TIME COMPLETED       0.904    ,  TOTAL TIME COMPLETED         4.90    


  INCREMENT    23 STARTS. ATTEMPT NUMBER  1, TIME INCREMENT  9.556E-02

  NUMBER OF EQUATIONS =     35263     NUMBER OF RHS =    1
  NUMBER OF FLOATING PT. OPERATIONS =  2.55E+09

  USING THE DIRECT SOLVER WITH   5 PROCESSORS

     CHECK POINT   START OF SOLVER    

     CHECK POINT  END OF SOLVER       

       ELAPSED USER TIME (SEC)      =  0.50000    
       ELAPSED SYSTEM TIME (SEC)    =   0.0000    
       ELAPSED TOTAL CPU TIME (SEC) =  0.50000    
       ELAPSED WALLCLOCK TIME (SEC) =          1

                   63 SEVERE DISCONTINUITIES OCCURRED DURING THIS ITERATION.
                   41 POINTS CHANGED FROM OPEN TO CLOSED
                   22 POINTS CHANGED FROM CLOSED TO OPEN

               CONVERGENCE CHECKS FOR SEVERE DISCONTINUITY ITERATION     1

   MAX. PENETRATION ERROR 37.9919E-06  AT NODE CHEST-RIGHT-1.893 OF CONTACT 
   PAIR (ASSEMBLY_NDE-12345-OUT_CNS_,ASSEMBLY_MEMBRANE-1_SURF-INN)
   MAX. CONTACT FORCE ERROR 748.571       AT NODE CHEST-RIGHT-1.893 OF CONTACT 
   PAIR (ASSEMBLY_NDE-12345-OUT_CNS_,ASSEMBLY_MEMBRANE-1_SURF-INN)
          PENETRATION ERROR TOO LARGE COMPARED TO DISPLACEMENT INCREMENT.

 AVERAGE FORCE                      3.182E-02   TIME AVG. FORCE       2.039E-02
 LARGEST RESIDUAL FORCE             3.772E-02   AT NODE        893   DOF  1
   INSTANCE: CHEST-RIGHT-1                                                                   
 LARGEST INCREMENT OF DISP.         1.521E-03   AT NODE        901   DOF  3
   INSTANCE: CHEST-RIGHT-1                                                                   
 LARGEST CORRECTION TO DISP.       -9.044E-05   AT NODE        634   DOF  3
   INSTANCE: CHEST-LEFT-1                                                                    
          FORCE     EQUILIBRIUM NOT ACHIEVED WITHIN TOLERANCE.

 AVERAGE MOMENT                     2.200E-06   TIME AVG. MOMENT      1.915E-06
 LARGEST RESIDUAL MOMENT           -9.893E-08   AT NODE         65   DOF  5
   INSTANCE: CHEST-LEFT-1                                                                    
 LARGEST INCREMENT OF ROTATION      4.343E-02   AT NODE         65   DOF  5
   INSTANCE: CHEST-LEFT-1                                                                    
 LARGEST CORRECTION TO ROTATION    -1.208E-02   AT NODE       1106   DOF  4
   INSTANCE: MEMBRANE-1                                                                      
          MOMENT    EQUILIBRIUM NOT ACHIEVED WITHIN TOLERANCE.

  NUMBER OF EQUATIONS =     35282     NUMBER OF RHS =    1
  NUMBER OF FLOATING PT. OPERATIONS =  2.47E+09

  USING THE DIRECT SOLVER WITH   5 PROCESSORS

     CHECK POINT   START OF SOLVER    

     CHECK POINT  END OF SOLVER       

       ELAPSED USER TIME (SEC)      =  0.70000    
       ELAPSED SYSTEM TIME (SEC)    =  0.10000    
       ELAPSED TOTAL CPU TIME (SEC) =  0.80000    
       ELAPSED WALLCLOCK TIME (SEC) =          0

                    7 SEVERE DISCONTINUITIES OCCURRED DURING THIS ITERATION.
                    3 POINTS CHANGED FROM OPEN TO CLOSED
                    4 POINTS CHANGED FROM CLOSED TO OPEN

               CONVERGENCE CHECKS FOR SEVERE DISCONTINUITY ITERATION     2

   MAX. PENETRATION ERROR 13.6591E-06  AT NODE CHEST-LEFT-1.871 OF CONTACT PAIR 
   (ASSEMBLY_NDE-12345-OUT_CNS_,ASSEMBLY_MEMBRANE-1_SURF-INN)
   MAX. CONTACT FORCE ERROR 269.132       AT NODE CHEST-LEFT-1.871 OF CONTACT 
   PAIR (ASSEMBLY_NDE-12345-OUT_CNS_,ASSEMBLY_MEMBRANE-1_SURF-INN)
          PENETRATION ERROR TOO LARGE COMPARED TO DISPLACEMENT INCREMENT.

 AVERAGE FORCE                      3.182E-02   TIME AVG. FORCE       2.039E-02
 LARGEST RESIDUAL FORCE            -1.334E-02   AT NODE        871   DOF  3
   INSTANCE: CHEST-LEFT-1                                                                    
 LARGEST INCREMENT OF DISP.         1.522E-03   AT NODE        118   DOF  3
   INSTANCE: CHEST-RIGHT-1                                                                   
 LARGEST CORRECTION TO DISP.        8.261E-05   AT NODE        566   DOF  3
   INSTANCE: MEMBRANE-1                                                                      
          FORCE     EQUILIBRIUM NOT ACHIEVED WITHIN TOLERANCE.

 AVERAGE MOMENT                     2.196E-06   TIME AVG. MOMENT      1.914E-06
 LARGEST RESIDUAL MOMENT           -2.217E-07   AT NODE        114   DOF  5
   INSTANCE: MEMBRANE-1                                                                      
 LARGEST INCREMENT OF ROTATION      4.310E-02   AT NODE         65   DOF  5
   INSTANCE: CHEST-LEFT-1                                                                    
 LARGEST CORRECTION TO ROTATION     5.462E-02   AT NODE        114   DOF  4
   INSTANCE: MEMBRANE-1                                                                      
          MOMENT    EQUILIBRIUM NOT ACHIEVED WITHIN TOLERANCE.

  NUMBER OF EQUATIONS =     35281     NUMBER OF RHS =    1
  NUMBER OF FLOATING PT. OPERATIONS =  2.49E+09

  USING THE DIRECT SOLVER WITH   5 PROCESSORS

     CHECK POINT   START OF SOLVER    

     CHECK POINT  END OF SOLVER       

       ELAPSED USER TIME (SEC)      =  0.60000    
       ELAPSED SYSTEM TIME (SEC)    =   0.0000    
       ELAPSED TOTAL CPU TIME (SEC) =  0.60000    
       ELAPSED WALLCLOCK TIME (SEC) =          0

                    2 SEVERE DISCONTINUITIES OCCURRED DURING THIS ITERATION.
                    1 POINTS CHANGED FROM OPEN TO CLOSED
                    1 POINTS CHANGED FROM CLOSED TO OPEN

               CONVERGENCE CHECKS FOR SEVERE DISCONTINUITY ITERATION     3

   MAX. PENETRATION ERROR -55.6274E-09  AT NODE CHEST-LEFT-1.871 OF CONTACT 
   PAIR (ASSEMBLY_NDE-12345-OUT_CNS_,ASSEMBLY_MEMBRANE-1_SURF-INN)
   MAX. CONTACT FORCE ERROR -1.09605     AT NODE CHEST-LEFT-1.871 OF CONTACT 
   PAIR (ASSEMBLY_NDE-12345-OUT_CNS_,ASSEMBLY_MEMBRANE-1_SURF-INN)
          THE ESTIMATED CONTACT FORCE ERROR IS OUTSIDE OF CONVERGENCE TOLERANCES.

 AVERAGE FORCE                      3.182E-02   TIME AVG. FORCE       2.039E-02
 LARGEST RESIDUAL FORCE            -1.267E-04   AT NODE        452   DOF  3
   INSTANCE: CHEST-LEFT-1                                                                    
 LARGEST INCREMENT OF DISP.         1.522E-03   AT NODE        118   DOF  3
   INSTANCE: CHEST-RIGHT-1                                                                   
 LARGEST CORRECTION TO DISP.       -1.594E-05   AT NODE        637   DOF  1
   INSTANCE: MEMBRANE-1                                                                      
          FORCE     EQUILIBRIUM NOT ACHIEVED WITHIN TOLERANCE.

 AVERAGE MOMENT                     2.196E-06   TIME AVG. MOMENT      1.914E-06
 LARGEST RESIDUAL MOMENT            5.632E-08   AT NODE        637   DOF  6
   INSTANCE: MEMBRANE-1                                                                      
 LARGEST INCREMENT OF ROTATION     -5.019E-02   AT NODE        114   DOF  6
   INSTANCE: MEMBRANE-1                                                                      
 LARGEST CORRECTION TO ROTATION     1.787E-02   AT NODE        114   DOF  4
   INSTANCE: MEMBRANE-1                                                                      
          MOMENT    EQUILIBRIUM NOT ACHIEVED WITHIN TOLERANCE.

  NUMBER OF EQUATIONS =     35281     NUMBER OF RHS =    1
  NUMBER OF FLOATING PT. OPERATIONS =  2.51E+09

  USING THE DIRECT SOLVER WITH   5 PROCESSORS

     CHECK POINT   START OF SOLVER    

     CHECK POINT  END OF SOLVER       

       ELAPSED USER TIME (SEC)      =  0.80000    
       ELAPSED SYSTEM TIME (SEC)    =   0.0000    
       ELAPSED TOTAL CPU TIME (SEC) =  0.80000    
       ELAPSED WALLCLOCK TIME (SEC) =          0

               CONVERGENCE CHECKS FOR EQUILIBRIUM ITERATION     1

   MAX. PENETRATION ERROR 1.62924E-09 AT NODE CHEST-LEFT-1.871 OF CONTACT PAIR 
   (ASSEMBLY_NDE-12345-OUT_CNS_,ASSEMBLY_MEMBRANE-1_SURF-INN)
   MAX. CONTACT FORCE ERROR 32.1016E-03  AT NODE CHEST-LEFT-1.871 OF CONTACT 
   PAIR (ASSEMBLY_NDE-12345-OUT_CNS_,ASSEMBLY_MEMBRANE-1_SURF-INN)
          THE ESTIMATED CONTACT FORCE ERROR IS OUTSIDE OF CONVERGENCE TOLERANCES.

 AVERAGE FORCE                      3.182E-02   TIME AVG. FORCE       2.039E-02
 LARGEST RESIDUAL FORCE             1.848E-06   AT NODE        637   DOF  1
   INSTANCE: MEMBRANE-1                                                                      
 LARGEST INCREMENT OF DISP.         1.522E-03   AT NODE        118   DOF  3
   INSTANCE: CHEST-RIGHT-1                                                                   
 LARGEST CORRECTION TO DISP.        1.153E-06   AT NODE       1356   DOF  3
   INSTANCE: MEMBRANE-1                                                                      
          THE FORCE     EQUILIBRIUM EQUATIONS HAVE CONVERGED

 AVERAGE MOMENT                     2.196E-06   TIME AVG. MOMENT      1.914E-06
 LARGEST RESIDUAL MOMENT           -1.074E-08   AT NODE         56   DOF  6
   INSTANCE: MEMBRANE-1                                                                      
 LARGEST INCREMENT OF ROTATION     -4.841E-02   AT NODE        114   DOF  6
   INSTANCE: MEMBRANE-1                                                                      
 LARGEST CORRECTION TO ROTATION    -5.339E-03   AT NODE        114   DOF  4
   INSTANCE: MEMBRANE-1                                                                      
          MOMENT    EQUILIBRIUM NOT ACHIEVED WITHIN TOLERANCE.

  NUMBER OF EQUATIONS =     35281     NUMBER OF RHS =    1
  NUMBER OF FLOATING PT. OPERATIONS =  2.51E+09

  USING THE DIRECT SOLVER WITH   5 PROCESSORS

     CHECK POINT   START OF SOLVER    

     CHECK POINT  END OF SOLVER       

       ELAPSED USER TIME (SEC)      =  0.80000    
       ELAPSED SYSTEM TIME (SEC)    =   0.0000    
       ELAPSED TOTAL CPU TIME (SEC) =  0.80000    
       ELAPSED WALLCLOCK TIME (SEC) =          0

               CONVERGENCE CHECKS FOR EQUILIBRIUM ITERATION     2

   MAX. PENETRATION ERROR 25.9873E-12  AT NODE CHEST-LEFT-1.396 OF CONTACT PAIR 
   (ASSEMBLY_NDE-12345-OUT_CNS_,ASSEMBLY_MEMBRANE-1_SURF-INN)
   MAX. CONTACT FORCE ERROR 512.038E-06   AT NODE CHEST-LEFT-1.396 OF CONTACT 
   PAIR (ASSEMBLY_NDE-12345-OUT_CNS_,ASSEMBLY_MEMBRANE-1_SURF-INN)
          THE CONTACT CONSTRAINTS HAVE CONVERGED.

 AVERAGE FORCE                      3.182E-02   TIME AVG. FORCE       2.039E-02
 LARGEST RESIDUAL FORCE            -9.577E-08   AT NODE         51   DOF  1
   INSTANCE: MEMBRANE-1                                                                      
 LARGEST INCREMENT OF DISP.         1.522E-03   AT NODE        118   DOF  3
   INSTANCE: CHEST-RIGHT-1                                                                   
 LARGEST CORRECTION TO DISP.       -2.732E-08   AT NODE        807   DOF  1
   INSTANCE: MEMBRANE-1                                                                      
          THE FORCE     EQUILIBRIUM EQUATIONS HAVE CONVERGED

 AVERAGE MOMENT                     2.196E-06   TIME AVG. MOMENT      1.914E-06
 LARGEST RESIDUAL MOMENT           -4.442E-10   AT NODE        637   DOF  6
   INSTANCE: MEMBRANE-1                                                                      
 LARGEST INCREMENT OF ROTATION     -4.837E-02   AT NODE        114   DOF  6
   INSTANCE: MEMBRANE-1                                                                      
 LARGEST CORRECTION TO ROTATION    -1.830E-04   AT NODE        114   DOF  4
   INSTANCE: MEMBRANE-1                                                                      
          THE MOMENT    EQUILIBRIUM EQUATIONS HAVE CONVERGED

 ITERATION SUMMARY FOR THE INCREMENT:   5 TOTAL ITERATIONS, OF WHICH
   3 ARE SEVERE DISCONTINUITY ITERATIONS AND  2 ARE EQUILIBRIUM ITERATIONS.

 TIME INCREMENT COMPLETED  9.556E-02,  FRACTION OF STEP COMPLETED   1.00    
 STEP TIME COMPLETED        1.00    ,  TOTAL TIME COMPLETED         5.00    


          THE ANALYSIS HAS BEEN COMPLETED



     ANALYSIS SUMMARY:
     TOTAL OF        111  INCREMENTS
                       2  CUTBACKS IN AUTOMATIC INCREMENTATION
                     506  ITERATIONS INCLUDING CONTACT ITERATIONS IF PRESENT
                     506  PASSES THROUGH THE EQUATION SOLVER OF WHICH 
                     452  INVOLVE MATRIX DECOMPOSITION, INCLUDING
                       0  DECOMPOSITION(S) OF THE MASS MATRIX
                       1  REORDERING OF EQUATIONS TO MINIMIZE WAVEFRONT
                       1  ADDITIONAL RESIDUAL EVALUATIONS FOR LINE SEARCHES
                       0  ADDITIONAL OPERATOR EVALUATIONS FOR LINE SEARCHES
                     253  WARNING MESSAGES DURING USER INPUT PROCESSING
                      32  WARNING MESSAGES DURING ANALYSIS
                       0  ANALYSIS WARNINGS ARE NUMERICAL PROBLEM MESSAGES
                       3  ANALYSIS WARNINGS ARE NEGATIVE EIGENVALUE MESSAGES
                       0  ERROR MESSAGES



     JOB TIME SUMMARY
       USER TIME (SEC)      =   1324.3    
       SYSTEM TIME (SEC)    =   50.600    
       TOTAL CPU TIME (SEC) =   1374.9    
       WALLCLOCK TIME (SEC) =        531
