1

   Abaqus 2020                                  Date 05-May-2022   Time 05:32:16
   For use by Supplied by Team-SolidSQUAD under license from Dassault Systemes or its subsidiary.

                                                                                 
                                                                                 
 STEP    1     INCREMENT     1     STEP TIME    0.00    


                        S T E P       1     S T A T I C   A N A L Y S I S


                                                                                          

     AUTOMATIC TIME CONTROL WITH -
          A SUGGESTED INITIAL TIME INCREMENT OF                1.000E-03
          AND A TOTAL TIME PERIOD OF                            1.00    
          THE MINIMUM TIME INCREMENT ALLOWED IS                1.000E-07
          THE MAXIMUM TIME INCREMENT ALLOWED IS                0.100    

     LINEAR EQUATION SOLVER TYPE         DIRECT SPARSE

 CONVERGENCE TOLERANCE PARAMETERS FOR FORCE    
     CRITERION FOR RESIDUAL FORCE     FOR A NONLINEAR PROBLEM          5.000E-03
     CRITERION FOR DISP.    CORRECTION IN A NONLINEAR PROBLEM          1.000E-02
     INITIAL VALUE OF TIME AVERAGE FORCE                               1.000E-02
     AVERAGE FORCE     IS TIME AVERAGE FORCE    
     ALTERNATE CRIT. FOR RESIDUAL FORCE     FOR A NONLINEAR PROBLEM    2.000E-02
     CRITERION FOR ZERO FORCE     RELATIVE TO TIME AVRG. FORCE         1.000E-05
     CRITERION FOR RESIDUAL FORCE     WHEN THERE IS ZERO FLUX          1.000E-05
     CRITERION FOR DISP.    CORRECTION WHEN THERE IS ZERO FLUX         1.000E-03
     CRITERION FOR RESIDUAL FORCE     FOR A LINEAR INCREMENT           1.000E-08
     FIELD CONVERSION RATIO                                             1.00    
     CRITERION FOR ZERO FORCE     REL. TO TIME AVRG. MAX. FORCE        1.000E-05
     CRITERION FOR ZERO DISP.    RELATIVE TO CHARACTERISTIC LENGTH     1.000E-08

 CONVERGENCE TOLERANCE PARAMETERS FOR MOMENT   
     CRITERION FOR RESIDUAL MOMENT    FOR A NONLINEAR PROBLEM          5.000E-03
     CRITERION FOR ROTATION CORRECTION IN A NONLINEAR PROBLEM          1.000E-02
     INITIAL VALUE OF TIME AVERAGE MOMENT                              1.000E-02
     AVERAGE MOMENT    IS TIME AVERAGE MOMENT   
     ALTERNATE CRIT. FOR RESIDUAL MOMENT    FOR A NONLINEAR PROBLEM    2.000E-02
     CRITERION FOR ZERO MOMENT    RELATIVE TO TIME AVRG. MOMENT        1.000E-05
     CRITERION FOR RESIDUAL MOMENT    WHEN THERE IS ZERO FLUX          1.000E-05
     CRITERION FOR ROTATION CORRECTION WHEN THERE IS ZERO FLUX         1.000E-03
     CRITERION FOR RESIDUAL MOMENT    FOR A LINEAR INCREMENT           1.000E-08
     FIELD CONVERSION RATIO                                             1.00    
     CRITERION FOR ZERO MOMENT    REL. TO TIME AVRG. MAX. MOMENT       1.000E-05

     VOLUMETRIC STRAIN COMPATIBILITY TOLERANCE FOR HYBRID SOLIDS       1.000E-05
     AXIAL STRAIN COMPATIBILITY TOLERANCE FOR HYBRID BEAMS             1.000E-05
     TRANS. SHEAR STRAIN COMPATIBILITY TOLERANCE FOR HYBRID BEAMS      1.000E-05
     SOFT CONTACT CONSTRAINT COMPATIBILITY TOLERANCE FOR P>P0          5.000E-03
     SOFT CONTACT CONSTRAINT COMPATIBILITY TOLERANCE FOR P=0.0         0.100    
     CONTACT FORCE ERROR TOLERANCE FOR CONVERT SDI=YES                 1.00    
     DISPLACEMENT COMPATIBILITY TOLERANCE FOR DCOUP ELEMENTS           1.000E-05
     ROTATION COMPATIBILITY TOLERANCE FOR DCOUP ELEMENTS               1.000E-05

 EQUILIBRIUM WILL BE CHECKED FOR SEVERE DISCONTINUITY ITERATIONS

 TIME INCREMENTATION CONTROL PARAMETERS:
     FIRST EQUILIBRIUM ITERATION FOR CONSECUTIVE DIVERGENCE CHECK              4
     EQUILIBRIUM ITERATION AT WHICH LOG. CONVERGENCE RATE CHECK BEGINS         8
     EQUILIBRIUM ITERATION AFTER WHICH ALTERNATE RESIDUAL IS USED              9
     MAXIMUM EQUILIBRIUM ITERATIONS ALLOWED                                   16
     EQUILIBRIUM ITERATION COUNT FOR CUT-BACK IN NEXT INCREMENT               10
     MAXIMUM EQUILIB. ITERS IN TWO INCREMENTS FOR TIME INCREMENT INCREASE      4
     MAXIMUM ITERATIONS FOR SEVERE DISCONTINUITIES                            50
     MAXIMUM ATTEMPTS ALLOWED IN AN INCREMENT                                  5
     MAXIMUM DISCON. ITERS IN TWO INCREMENTS FOR TIME INCREMENT INCREASE      50
     MAXIMUM CONTACT AUGMENTATIONS FOR *SURFACE BEHAVIOR,AUGMENTED LAGRANGE   50
     CUT-BACK FACTOR AFTER DIVERGENCE                                 0.2500    
     CUT-BACK FACTOR FOR TOO SLOW CONVERGENCE                         0.5000    
     CUT-BACK FACTOR AFTER TOO MANY EQUILIBRIUM ITERATIONS            0.7500    
     CUT-BACK FACTOR AFTER TOO MANY SEVERE DISCONTINUITY ITERATIONS   0.2500    
     CUT-BACK FACTOR AFTER PROBLEMS IN ELEMENT ASSEMBLY               0.2500    
     INCREASE FACTOR AFTER TWO INCREMENTS THAT CONVERGE QUICKLY        1.500    
     MAX. TIME INCREMENT INCREASE FACTOR ALLOWED                       1.500    
     MAX. TIME INCREMENT INCREASE FACTOR ALLOWED (DYNAMICS)            1.250    
     MAX. TIME INCREMENT INCREASE FACTOR ALLOWED (DIFFUSION)           2.000    
     MINIMUM TIME INCREMENT RATIO FOR EXTRAPOLATION TO OCCUR          0.1000    
     MAX. RATIO OF TIME INCREMENT TO STABILITY LIMIT                   1.000    
     FRACTION OF STABILITY LIMIT FOR NEW TIME INCREMENT               0.9500    
     TIME INCREMENT INCREASE FACTOR BEFORE A TIME POINT                1.000    
     GLOBAL STABILIZATION CONTROL IS NOT USED

          PRINT OF INCREMENT NUMBER, TIME, ETC., EVERY    1  INCREMENTS

 LINE SEARCH TOLERANCE PARAMETERS:
     MAXIMUM NUMBER OF ZERO-FINDING ITERATIONS                                 0
     MAXIMUM CORRECTION SCALE FACTOR                                    1.00    
     MINIMUM CORRECTION SCALE FACTOR                                   1.000E-04
     RESIDUAL REDUCTION FACTOR TO END LINE SEARCHING                   0.250    
     RATIO OF NEW TO OLD SCALE FACTORS TO END LINE SEARCHING           0.100    

          THE QUASI-NEWTON SOLUTION TECHNIQUE WILL BE USED
          THE MAXIMUM NUMBER OF ITERATIONS ALLOWED BEFORE
          REFORMING THE KERNEL MATRIX IS                           8

     THE MAXIMUM NUMBER OF INCREMENTS IN THIS STEP IS                    1000

          LARGE DISPLACEMENT THEORY WILL BE USED

     LINEAR EXTRAPOLATION WILL BE USED

     CHARACTERISTIC ELEMENT LENGTH     8.307E-03

     DETAILS REGARDING ACTUAL SOLUTION WAVEFRONT REQUESTED

     DETAILED OUTPUT OF DIAGNOSTICS TO DATABASE REQUESTED

     PRINT OF INCREMENT NUMBER, TIME, ETC., TO THE MESSAGE FILE EVERY     1  INCREMENTS

     ELEMENT OPERATIONS WILL BE CARRIED OUT IN PARALLEL USING   5 PROCESSORS

     PARALLEL CONTACT TRACKING ENABLED


     COLLECTING MODEL CONSTRAINT INFORMATION FOR OVERCONSTRAINT CHECKS

     COLLECTING STEP CONSTRAINT INFORMATION FOR OVERCONSTRAINT CHECKS


  INCREMENT     1 STARTS. ATTEMPT NUMBER  1, TIME INCREMENT  1.000E-03
 
     INITIAL ELEMENT LOAD BALANCE
            PROCESS    1   THREAD     NUMBER OF ELEMENTS
                              1            3072
                              2            2986
                              3            2816
                              4            3072
                              5            3325

 ==> quasi-Newton: performing full factorization

 ***WARNING: THERE ARE 4 UNCONNECTED REGIONS IN THE MODEL.

 ***NOTE: SFM TYPE SURFACE ELEMENTS USED TO DEFINE CONTACT SURFACES NOT PART OF 
          A RIGID BODY MAY INCREASE THE NUMBER OR UNCONNECTED REGIONS REPORTED.

  USING THE DIRECT SOLVER WITH   5 PROCESSORS

     CHECK POINT   START OF SOLVER    

  NUMBER OF EQUATIONS =     34476     NUMBER OF RHS =    1
  NUMBER OF FLOATING PT. OPERATIONS =  7.83E+08

     CHECK POINT  END OF SOLVER       

       ELAPSED USER TIME (SEC)      =  0.40000    
       ELAPSED SYSTEM TIME (SEC)    =  0.10000    
       ELAPSED TOTAL CPU TIME (SEC) =  0.50000    
       ELAPSED WALLCLOCK TIME (SEC) =          0

               CONVERGENCE CHECKS FOR EQUILIBRIUM ITERATION     1


 AVERAGE FORCE                      6.568E-06   TIME AVG. FORCE        1.20    
                                                (FROM MOMENT    FIELD)
 LARGEST RESIDUAL FORCE             5.227E-04   AT NODE        131   DOF  2
   INSTANCE: WAIST-UP-1                                                                      
 LARGEST INCREMENT OF DISP.         2.995E-04   AT NODE        499   DOF  3
   INSTANCE: WAIST-UP-1                                                                      
 LARGEST CORRECTION TO DISP.        2.995E-04   AT NODE        499   DOF  3
   INSTANCE: WAIST-UP-1                                                                      
          THE FORCE     IS ZERO EVERYWHERE BUT THE FORCE     RESIDUAL OR
          THE DISP.    CORRECTION IS NON-ZERO

 AVERAGE MOMENT                     3.614E-09   TIME AVG. MOMENT      1.000E-02
 LARGEST RESIDUAL MOMENT            8.833E-08   AT NODE        460   DOF  4
   INSTANCE: WAIST-UP-1                                                                      
 LARGEST INCREMENT OF ROTATION     -2.160E-02   AT NODE         90   DOF  4
   INSTANCE: WAIST-UP-1                                                                      
 LARGEST CORRECTION TO ROTATION    -2.160E-02   AT NODE         90   DOF  4
   INSTANCE: WAIST-UP-1                                                                      
          THERE IS ZERO MOMENT    EVERYWHERE
 

 ***WARNING: THERE IS ZERO MOMENT EVERYWHERE IN THE MODEL BASED ON THE DEFAULT 
             CRITERION. PLEASE CHECK THE VALUE OF THE AVERAGE MOMENT DURING THE 
             CURRENT ITERATION TO VERIFY THAT THE MOMENT IS SMALL ENOUGH TO BE 
             TREATED AS ZERO. IF NOT, PLEASE USE THE SOLUTION CONTROLS TO RESET 
             THE CRITERION FOR ZERO MOMENT.

 ==> quasi-Newton: applying BFGS update  1

  USING THE DIRECT SOLVER WITH   5 PROCESSORS

     CHECK POINT   START OF SOLVER    

  NUMBER OF EQUATIONS =     34476     NUMBER OF RHS =    1
  NUMBER OF FLOATING PT. OPERATIONS =  7.83E+08

     CHECK POINT  END OF SOLVER       

       ELAPSED USER TIME (SEC)      =  0.10000    
       ELAPSED SYSTEM TIME (SEC)    =  0.10000    
       ELAPSED TOTAL CPU TIME (SEC) =  0.20000    
       ELAPSED WALLCLOCK TIME (SEC) =          0
 ==> quasi-Newton:  skipped BFGS update  1

               CONVERGENCE CHECKS FOR EQUILIBRIUM ITERATION     2
               LINE SEARCH SCALE FACTOR = 0.691    


 AVERAGE FORCE                      6.315E-06   TIME AVG. FORCE        1.20    
                                                (FROM MOMENT    FIELD)
 LARGEST RESIDUAL FORCE            -3.366E-05   AT NODE         91   DOF  2
   INSTANCE: WAIST-UP-1                                                                      
 LARGEST INCREMENT OF DISP.         2.553E-04   AT NODE        499   DOF  3
   INSTANCE: WAIST-UP-1                                                                      
 LARGEST CORRECTION TO DISP.       -4.425E-05   AT NODE        499   DOF  3
   INSTANCE: WAIST-UP-1                                                                      
          THE FORCE     IS ZERO EVERYWHERE BUT THE FORCE     RESIDUAL OR
          THE DISP.    CORRECTION IS NON-ZERO

 AVERAGE MOMENT                     3.391E-09   TIME AVG. MOMENT      1.000E-02
 LARGEST RESIDUAL MOMENT           -6.923E-09   AT NODE        498   DOF  4
   INSTANCE: WAIST-UP-1                                                                      
 LARGEST INCREMENT OF ROTATION     -1.791E-02   AT NODE         90   DOF  4
   INSTANCE: WAIST-UP-1                                                                      
 LARGEST CORRECTION TO ROTATION     3.700E-03   AT NODE         22   DOF  4
   INSTANCE: WAIST-UP-1                                                                      
          THERE IS ZERO MOMENT    EVERYWHERE
 

 ***WARNING: THERE IS ZERO MOMENT EVERYWHERE IN THE MODEL BASED ON THE DEFAULT 
             CRITERION. PLEASE CHECK THE VALUE OF THE AVERAGE MOMENT DURING THE 
             CURRENT ITERATION TO VERIFY THAT THE MOMENT IS SMALL ENOUGH TO BE 
             TREATED AS ZERO. IF NOT, PLEASE USE THE SOLUTION CONTROLS TO RESET 
             THE CRITERION FOR ZERO MOMENT.

 ==> quasi-Newton: applying BFGS update  1

  USING THE DIRECT SOLVER WITH   5 PROCESSORS

     CHECK POINT   START OF SOLVER    

  NUMBER OF EQUATIONS =     34476     NUMBER OF RHS =    1
  NUMBER OF FLOATING PT. OPERATIONS =  7.83E+08

     CHECK POINT  END OF SOLVER       

       ELAPSED USER TIME (SEC)      =  0.10000    
       ELAPSED SYSTEM TIME (SEC)    =   0.0000    
       ELAPSED TOTAL CPU TIME (SEC) =  0.10000    
       ELAPSED WALLCLOCK TIME (SEC) =          1

               CONVERGENCE CHECKS FOR EQUILIBRIUM ITERATION     3


 AVERAGE FORCE                      6.300E-06   TIME AVG. FORCE        1.20    
                                                (FROM MOMENT    FIELD)
 LARGEST RESIDUAL FORCE             1.775E-05   AT NODE        460   DOF  2
   INSTANCE: WAIST-UP-1                                                                      
 LARGEST INCREMENT OF DISP.         2.572E-04   AT NODE        499   DOF  3
   INSTANCE: WAIST-UP-1                                                                      
 LARGEST CORRECTION TO DISP.        3.012E-06   AT NODE        532   DOF  3
   INSTANCE: WAIST-UP-1                                                                      
          THE FORCE     IS ZERO EVERYWHERE BUT THE FORCE     RESIDUAL OR
          THE DISP.    CORRECTION IS NON-ZERO

 AVERAGE MOMENT                     3.379E-09   TIME AVG. MOMENT      1.000E-02
 LARGEST RESIDUAL MOMENT           -7.273E-10   AT NODE        499   DOF  4
   INSTANCE: WAIST-UP-1                                                                      
 LARGEST INCREMENT OF ROTATION     -1.835E-02   AT NODE         90   DOF  4
   INSTANCE: WAIST-UP-1                                                                      
 LARGEST CORRECTION TO ROTATION    -4.423E-04   AT NODE         22   DOF  4
   INSTANCE: WAIST-UP-1                                                                      
          THERE IS ZERO MOMENT    EVERYWHERE
 

 ***WARNING: THERE IS ZERO MOMENT EVERYWHERE IN THE MODEL BASED ON THE DEFAULT 
             CRITERION. PLEASE CHECK THE VALUE OF THE AVERAGE MOMENT DURING THE 
             CURRENT ITERATION TO VERIFY THAT THE MOMENT IS SMALL ENOUGH TO BE 
             TREATED AS ZERO. IF NOT, PLEASE USE THE SOLUTION CONTROLS TO RESET 
             THE CRITERION FOR ZERO MOMENT.

 ==> quasi-Newton: applying BFGS update  2

  USING THE DIRECT SOLVER WITH   5 PROCESSORS

     CHECK POINT   START OF SOLVER    

  NUMBER OF EQUATIONS =     34476     NUMBER OF RHS =    1
  NUMBER OF FLOATING PT. OPERATIONS =  7.83E+08

     CHECK POINT  END OF SOLVER       

       ELAPSED USER TIME (SEC)      =  0.10000    
       ELAPSED SYSTEM TIME (SEC)    =  0.10000    
       ELAPSED TOTAL CPU TIME (SEC) =  0.20000    
       ELAPSED WALLCLOCK TIME (SEC) =          0

               CONVERGENCE CHECKS FOR EQUILIBRIUM ITERATION     4


 AVERAGE FORCE                      6.303E-06   TIME AVG. FORCE        1.20    
                                                (FROM MOMENT    FIELD)
 LARGEST RESIDUAL FORCE             1.018E-06   AT NODE        460   DOF  2
   INSTANCE: WAIST-UP-1                                                                      
 LARGEST INCREMENT OF DISP.         2.574E-04   AT NODE        499   DOF  3
   INSTANCE: WAIST-UP-1                                                                      
 LARGEST CORRECTION TO DISP.        4.056E-07   AT NODE        266   DOF  3
   INSTANCE: WAIST-UP-1                                                                      
          THERE IS ZERO FORCE     EVERYWHERE

 AVERAGE MOMENT                     3.382E-09   TIME AVG. MOMENT      1.000E-02
 LARGEST RESIDUAL MOMENT            7.501E-11   AT NODE        532   DOF  4
   INSTANCE: WAIST-UP-1                                                                      
 LARGEST INCREMENT OF ROTATION     -1.834E-02   AT NODE         90   DOF  4
   INSTANCE: WAIST-UP-1                                                                      
 LARGEST CORRECTION TO ROTATION     2.846E-05   AT NODE        141   DOF  4
   INSTANCE: WAIST-UP-1                                                                      
          THERE IS ZERO MOMENT    EVERYWHERE
 

 ***WARNING: THERE IS ZERO MOMENT EVERYWHERE IN THE MODEL BASED ON THE DEFAULT 
             CRITERION. PLEASE CHECK THE VALUE OF THE AVERAGE MOMENT DURING THE 
             CURRENT ITERATION TO VERIFY THAT THE MOMENT IS SMALL ENOUGH TO BE 
             TREATED AS ZERO. IF NOT, PLEASE USE THE SOLUTION CONTROLS TO RESET 
             THE CRITERION FOR ZERO MOMENT.

 ITERATION SUMMARY FOR THE INCREMENT:   4 TOTAL ITERATIONS, OF WHICH
   0 ARE SEVERE DISCONTINUITY ITERATIONS AND  4 ARE EQUILIBRIUM ITERATIONS.

 TIME INCREMENT COMPLETED  1.000E-03,  FRACTION OF STEP COMPLETED  1.000E-03
 STEP TIME COMPLETED       1.000E-03,  TOTAL TIME COMPLETED        1.000E-03


  INCREMENT     2 STARTS. ATTEMPT NUMBER  1, TIME INCREMENT  1.000E-03

 ==> quasi-Newton: performing full factorization

  USING THE DIRECT SOLVER WITH   5 PROCESSORS

     CHECK POINT   START OF SOLVER    

  NUMBER OF EQUATIONS =     34476     NUMBER OF RHS =    1
  NUMBER OF FLOATING PT. OPERATIONS =  7.83E+08

     CHECK POINT  END OF SOLVER       

       ELAPSED USER TIME (SEC)      =  0.50000    
       ELAPSED SYSTEM TIME (SEC)    =  0.10000    
       ELAPSED TOTAL CPU TIME (SEC) =  0.60000    
       ELAPSED WALLCLOCK TIME (SEC) =          0

               CONVERGENCE CHECKS FOR EQUILIBRIUM ITERATION     1


 AVERAGE FORCE                      1.249E-05   TIME AVG. FORCE       1.249E-05
 LARGEST RESIDUAL FORCE             2.097E-05   AT NODE        131   DOF  2
   INSTANCE: WAIST-UP-1                                                                      
 LARGEST INCREMENT OF DISP.         2.012E-04   AT NODE        288   DOF  3
   INSTANCE: WAIST-UP-1                                                                      
 LARGEST CORRECTION TO DISP.       -5.799E-05   AT NODE        499   DOF  3
   INSTANCE: WAIST-UP-1                                                                      
          FORCE     EQUILIBRIUM NOT ACHIEVED WITHIN TOLERANCE.

 AVERAGE MOMENT                     6.420E-09   TIME AVG. MOMENT      1.000E-02
 LARGEST RESIDUAL MOMENT           -1.592E-08   AT NODE        771   DOF  4
   INSTANCE: WAIST-MIDDLE-1                                                                  
 LARGEST INCREMENT OF ROTATION     -1.405E-02   AT NODE         90   DOF  4
   INSTANCE: WAIST-UP-1                                                                      
 LARGEST CORRECTION TO ROTATION     4.293E-03   AT NODE         90   DOF  4
   INSTANCE: WAIST-UP-1                                                                      
          THERE IS ZERO MOMENT    EVERYWHERE
 

 ***WARNING: THERE IS ZERO MOMENT EVERYWHERE IN THE MODEL BASED ON THE DEFAULT 
             CRITERION. PLEASE CHECK THE VALUE OF THE AVERAGE MOMENT DURING THE 
             CURRENT ITERATION TO VERIFY THAT THE MOMENT IS SMALL ENOUGH TO BE 
             TREATED AS ZERO. IF NOT, PLEASE USE THE SOLUTION CONTROLS TO RESET 
             THE CRITERION FOR ZERO MOMENT.

 ==> quasi-Newton: applying BFGS update  1

  USING THE DIRECT SOLVER WITH   5 PROCESSORS

     CHECK POINT   START OF SOLVER    

  NUMBER OF EQUATIONS =     34476     NUMBER OF RHS =    1
  NUMBER OF FLOATING PT. OPERATIONS =  7.83E+08

     CHECK POINT  END OF SOLVER       

       ELAPSED USER TIME (SEC)      =  0.20000    
       ELAPSED SYSTEM TIME (SEC)    =  0.10000    
       ELAPSED TOTAL CPU TIME (SEC) =  0.30000    
       ELAPSED WALLCLOCK TIME (SEC) =          0
 ==> quasi-Newton:  skipped BFGS update  1

               CONVERGENCE CHECKS FOR EQUILIBRIUM ITERATION     2


 AVERAGE FORCE                      1.248E-05   TIME AVG. FORCE       1.248E-05
 LARGEST RESIDUAL FORCE             3.021E-06   AT NODE        460   DOF  2
   INSTANCE: WAIST-UP-1                                                                      
 LARGEST INCREMENT OF DISP.         1.990E-04   AT NODE        288   DOF  3
   INSTANCE: WAIST-UP-1                                                                      
 LARGEST CORRECTION TO DISP.       -2.753E-06   AT NODE        499   DOF  3
   INSTANCE: WAIST-UP-1                                                                      
          FORCE     EQUILIBRIUM NOT ACHIEVED WITHIN TOLERANCE.

 AVERAGE MOMENT                     6.410E-09   TIME AVG. MOMENT      1.000E-02
 LARGEST RESIDUAL MOMENT            7.212E-10   AT NODE        460   DOF  4
   INSTANCE: WAIST-UP-1                                                                      
 LARGEST INCREMENT OF ROTATION     -1.375E-02   AT NODE         90   DOF  4
   INSTANCE: WAIST-UP-1                                                                      
 LARGEST CORRECTION TO ROTATION     2.954E-04   AT NODE         90   DOF  4
   INSTANCE: WAIST-UP-1                                                                      
          THERE IS ZERO MOMENT    EVERYWHERE
 

 ***WARNING: THERE IS ZERO MOMENT EVERYWHERE IN THE MODEL BASED ON THE DEFAULT 
             CRITERION. PLEASE CHECK THE VALUE OF THE AVERAGE MOMENT DURING THE 
             CURRENT ITERATION TO VERIFY THAT THE MOMENT IS SMALL ENOUGH TO BE 
             TREATED AS ZERO. IF NOT, PLEASE USE THE SOLUTION CONTROLS TO RESET 
             THE CRITERION FOR ZERO MOMENT.

 ==> quasi-Newton: applying BFGS update  1

  USING THE DIRECT SOLVER WITH   5 PROCESSORS

     CHECK POINT   START OF SOLVER    

  NUMBER OF EQUATIONS =     34476     NUMBER OF RHS =    1
  NUMBER OF FLOATING PT. OPERATIONS =  7.83E+08

     CHECK POINT  END OF SOLVER       

       ELAPSED USER TIME (SEC)      =  0.30000    
       ELAPSED SYSTEM TIME (SEC)    =   0.0000    
       ELAPSED TOTAL CPU TIME (SEC) =  0.30000    
       ELAPSED WALLCLOCK TIME (SEC) =          0

               CONVERGENCE CHECKS FOR EQUILIBRIUM ITERATION     3


 AVERAGE FORCE                      1.248E-05   TIME AVG. FORCE       1.248E-05
 LARGEST RESIDUAL FORCE             1.317E-08   AT NODE        498   DOF  2
   INSTANCE: WAIST-UP-1                                                                      
 LARGEST INCREMENT OF DISP.         1.988E-04   AT NODE        288   DOF  3
   INSTANCE: WAIST-UP-1                                                                      
 LARGEST CORRECTION TO DISP.       -2.733E-07   AT NODE        532   DOF  3
   INSTANCE: WAIST-UP-1                                                                      
          THE FORCE     EQUILIBRIUM EQUATIONS HAVE CONVERGED

 AVERAGE MOMENT                     6.409E-09   TIME AVG. MOMENT      1.000E-02
 LARGEST RESIDUAL MOMENT            6.067E-12   AT NODE        771   DOF  4
   INSTANCE: WAIST-MIDDLE-1                                                                  
 LARGEST INCREMENT OF ROTATION     -1.372E-02   AT NODE         90   DOF  4
   INSTANCE: WAIST-UP-1                                                                      
 LARGEST CORRECTION TO ROTATION     3.035E-05   AT NODE         90   DOF  4
   INSTANCE: WAIST-UP-1                                                                      
          THERE IS ZERO MOMENT    EVERYWHERE
 

 ***WARNING: THERE IS ZERO MOMENT EVERYWHERE IN THE MODEL BASED ON THE DEFAULT 
             CRITERION. PLEASE CHECK THE VALUE OF THE AVERAGE MOMENT DURING THE 
             CURRENT ITERATION TO VERIFY THAT THE MOMENT IS SMALL ENOUGH TO BE 
             TREATED AS ZERO. IF NOT, PLEASE USE THE SOLUTION CONTROLS TO RESET 
             THE CRITERION FOR ZERO MOMENT.
          TIME INCREMENT MAY NOW INCREASE TO    1.500E-03

 ITERATION SUMMARY FOR THE INCREMENT:   3 TOTAL ITERATIONS, OF WHICH
   0 ARE SEVERE DISCONTINUITY ITERATIONS AND  3 ARE EQUILIBRIUM ITERATIONS.

 TIME INCREMENT COMPLETED  1.000E-03,  FRACTION OF STEP COMPLETED  2.000E-03
 STEP TIME COMPLETED       2.000E-03,  TOTAL TIME COMPLETED        2.000E-03


  INCREMENT     3 STARTS. ATTEMPT NUMBER  1, TIME INCREMENT  1.500E-03

 ==> quasi-Newton: performing full factorization

  USING THE DIRECT SOLVER WITH   5 PROCESSORS

     CHECK POINT   START OF SOLVER    

  NUMBER OF EQUATIONS =     34476     NUMBER OF RHS =    1
  NUMBER OF FLOATING PT. OPERATIONS =  7.83E+08

     CHECK POINT  END OF SOLVER       

       ELAPSED USER TIME (SEC)      =  0.50000    
       ELAPSED SYSTEM TIME (SEC)    =  0.10000    
       ELAPSED TOTAL CPU TIME (SEC) =  0.60000    
       ELAPSED WALLCLOCK TIME (SEC) =          1

               CONVERGENCE CHECKS FOR EQUILIBRIUM ITERATION     1


 AVERAGE FORCE                      7.807E-05   TIME AVG. FORCE       4.528E-05
 LARGEST RESIDUAL FORCE             2.462E-05   AT NODE        131   DOF  2
   INSTANCE: WAIST-UP-1                                                                      
 LARGEST INCREMENT OF DISP.         2.373E-04   AT NODE        288   DOF  3
   INSTANCE: WAIST-UP-1                                                                      
 LARGEST CORRECTION TO DISP.       -6.479E-05   AT NODE        499   DOF  3
   INSTANCE: WAIST-UP-1                                                                      
          FORCE     EQUILIBRIUM NOT ACHIEVED WITHIN TOLERANCE.

 AVERAGE MOMENT                     1.051E-08   TIME AVG. MOMENT      1.000E-02
 LARGEST RESIDUAL MOMENT           -1.943E-08   AT NODE        771   DOF  4
   INSTANCE: WAIST-MIDDLE-1                                                                  
 LARGEST INCREMENT OF ROTATION     -1.593E-02   AT NODE         90   DOF  4
   INSTANCE: WAIST-UP-1                                                                      
 LARGEST CORRECTION TO ROTATION     4.652E-03   AT NODE         90   DOF  4
   INSTANCE: WAIST-UP-1                                                                      
          THERE IS ZERO MOMENT    EVERYWHERE
 

 ***WARNING: THERE IS ZERO MOMENT EVERYWHERE IN THE MODEL BASED ON THE DEFAULT 
             CRITERION. PLEASE CHECK THE VALUE OF THE AVERAGE MOMENT DURING THE 
             CURRENT ITERATION TO VERIFY THAT THE MOMENT IS SMALL ENOUGH TO BE 
             TREATED AS ZERO. IF NOT, PLEASE USE THE SOLUTION CONTROLS TO RESET 
             THE CRITERION FOR ZERO MOMENT.

 ==> quasi-Newton: applying BFGS update  1

  USING THE DIRECT SOLVER WITH   5 PROCESSORS

     CHECK POINT   START OF SOLVER    

  NUMBER OF EQUATIONS =     34476     NUMBER OF RHS =    1
  NUMBER OF FLOATING PT. OPERATIONS =  7.83E+08

     CHECK POINT  END OF SOLVER       

       ELAPSED USER TIME (SEC)      =  0.20000    
       ELAPSED SYSTEM TIME (SEC)    =   0.0000    
       ELAPSED TOTAL CPU TIME (SEC) =  0.20000    
       ELAPSED WALLCLOCK TIME (SEC) =          0
 ==> quasi-Newton:  skipped BFGS update  1

               CONVERGENCE CHECKS FOR EQUILIBRIUM ITERATION     2


 AVERAGE FORCE                      7.802E-05   TIME AVG. FORCE       4.525E-05
 LARGEST RESIDUAL FORCE             3.298E-06   AT NODE        460   DOF  2
   INSTANCE: WAIST-UP-1                                                                      
 LARGEST INCREMENT OF DISP.         2.351E-04   AT NODE        288   DOF  3
   INSTANCE: WAIST-UP-1                                                                      
 LARGEST CORRECTION TO DISP.       -2.857E-06   AT NODE        499   DOF  3
   INSTANCE: WAIST-UP-1                                                                      
          FORCE     EQUILIBRIUM NOT ACHIEVED WITHIN TOLERANCE.

 AVERAGE MOMENT                     1.050E-08   TIME AVG. MOMENT      1.000E-02
 LARGEST RESIDUAL MOMENT            8.896E-10   AT NODE        460   DOF  4
   INSTANCE: WAIST-UP-1                                                                      
 LARGEST INCREMENT OF ROTATION     -1.563E-02   AT NODE         90   DOF  4
   INSTANCE: WAIST-UP-1                                                                      
 LARGEST CORRECTION TO ROTATION     3.027E-04   AT NODE         90   DOF  4
   INSTANCE: WAIST-UP-1                                                                      
          THERE IS ZERO MOMENT    EVERYWHERE
 

 ***WARNING: THERE IS ZERO MOMENT EVERYWHERE IN THE MODEL BASED ON THE DEFAULT 
             CRITERION. PLEASE CHECK THE VALUE OF THE AVERAGE MOMENT DURING THE 
             CURRENT ITERATION TO VERIFY THAT THE MOMENT IS SMALL ENOUGH TO BE 
             TREATED AS ZERO. IF NOT, PLEASE USE THE SOLUTION CONTROLS TO RESET 
             THE CRITERION FOR ZERO MOMENT.

 ==> quasi-Newton: applying BFGS update  1

  USING THE DIRECT SOLVER WITH   5 PROCESSORS

     CHECK POINT   START OF SOLVER    

  NUMBER OF EQUATIONS =     34476     NUMBER OF RHS =    1
  NUMBER OF FLOATING PT. OPERATIONS =  7.83E+08

     CHECK POINT  END OF SOLVER       

       ELAPSED USER TIME (SEC)      =  0.20000    
       ELAPSED SYSTEM TIME (SEC)    =   0.0000    
       ELAPSED TOTAL CPU TIME (SEC) =  0.20000    
       ELAPSED WALLCLOCK TIME (SEC) =          0

               CONVERGENCE CHECKS FOR EQUILIBRIUM ITERATION     3


 AVERAGE FORCE                      7.802E-05   TIME AVG. FORCE       4.525E-05
 LARGEST RESIDUAL FORCE             2.336E-08   AT NODE        460   DOF  2
   INSTANCE: WAIST-UP-1                                                                      
 LARGEST INCREMENT OF DISP.         2.348E-04   AT NODE        288   DOF  3
   INSTANCE: WAIST-UP-1                                                                      
 LARGEST CORRECTION TO DISP.       -2.750E-07   AT NODE        499   DOF  3
   INSTANCE: WAIST-UP-1                                                                      
          THE FORCE     EQUILIBRIUM EQUATIONS HAVE CONVERGED

 AVERAGE MOMENT                     1.050E-08   TIME AVG. MOMENT      1.000E-02
 LARGEST RESIDUAL MOMENT            7.758E-12   AT NODE        771   DOF  4
   INSTANCE: WAIST-MIDDLE-1                                                                  
 LARGEST INCREMENT OF ROTATION     -1.560E-02   AT NODE         90   DOF  4
   INSTANCE: WAIST-UP-1                                                                      
 LARGEST CORRECTION TO ROTATION     3.062E-05   AT NODE         90   DOF  4
   INSTANCE: WAIST-UP-1                                                                      
          THERE IS ZERO MOMENT    EVERYWHERE
 

 ***WARNING: THERE IS ZERO MOMENT EVERYWHERE IN THE MODEL BASED ON THE DEFAULT 
             CRITERION. PLEASE CHECK THE VALUE OF THE AVERAGE MOMENT DURING THE 
             CURRENT ITERATION TO VERIFY THAT THE MOMENT IS SMALL ENOUGH TO BE 
             TREATED AS ZERO. IF NOT, PLEASE USE THE SOLUTION CONTROLS TO RESET 
             THE CRITERION FOR ZERO MOMENT.
          TIME INCREMENT MAY NOW INCREASE TO    2.250E-03

 ITERATION SUMMARY FOR THE INCREMENT:   3 TOTAL ITERATIONS, OF WHICH
   0 ARE SEVERE DISCONTINUITY ITERATIONS AND  3 ARE EQUILIBRIUM ITERATIONS.

 TIME INCREMENT COMPLETED  1.500E-03,  FRACTION OF STEP COMPLETED  3.500E-03
 STEP TIME COMPLETED       3.500E-03,  TOTAL TIME COMPLETED        3.500E-03


  INCREMENT     4 STARTS. ATTEMPT NUMBER  1, TIME INCREMENT  2.250E-03

 ==> quasi-Newton: performing full factorization

  USING THE DIRECT SOLVER WITH   5 PROCESSORS

     CHECK POINT   START OF SOLVER    

  NUMBER OF EQUATIONS =     34476     NUMBER OF RHS =    1
  NUMBER OF FLOATING PT. OPERATIONS =  7.83E+08

     CHECK POINT  END OF SOLVER       

       ELAPSED USER TIME (SEC)      =  0.60000    
       ELAPSED SYSTEM TIME (SEC)    =  0.10000    
       ELAPSED TOTAL CPU TIME (SEC) =  0.70000    
       ELAPSED WALLCLOCK TIME (SEC) =          0

               CONVERGENCE CHECKS FOR EQUILIBRIUM ITERATION     1


 AVERAGE FORCE                      1.241E-04   TIME AVG. FORCE       7.154E-05
 LARGEST RESIDUAL FORCE             3.694E-05   AT NODE        131   DOF  2
   INSTANCE: WAIST-UP-1                                                                      
 LARGEST INCREMENT OF DISP.         2.726E-04   AT NODE        288   DOF  3
   INSTANCE: WAIST-UP-1                                                                      
 LARGEST CORRECTION TO DISP.       -8.252E-05   AT NODE        499   DOF  3
   INSTANCE: WAIST-UP-1                                                                      
          FORCE     EQUILIBRIUM NOT ACHIEVED WITHIN TOLERANCE.

 AVERAGE MOMENT                     1.598E-08   TIME AVG. MOMENT      1.000E-02
 LARGEST RESIDUAL MOMENT           -2.883E-08   AT NODE        771   DOF  4
   INSTANCE: WAIST-MIDDLE-1                                                                  
 LARGEST INCREMENT OF ROTATION     -1.769E-02   AT NODE         90   DOF  4
   INSTANCE: WAIST-UP-1                                                                      
 LARGEST CORRECTION TO ROTATION     5.710E-03   AT NODE         90   DOF  4
   INSTANCE: WAIST-UP-1                                                                      
          THERE IS ZERO MOMENT    EVERYWHERE
 

 ***WARNING: THERE IS ZERO MOMENT EVERYWHERE IN THE MODEL BASED ON THE DEFAULT 
             CRITERION. PLEASE CHECK THE VALUE OF THE AVERAGE MOMENT DURING THE 
             CURRENT ITERATION TO VERIFY THAT THE MOMENT IS SMALL ENOUGH TO BE 
             TREATED AS ZERO. IF NOT, PLEASE USE THE SOLUTION CONTROLS TO RESET 
             THE CRITERION FOR ZERO MOMENT.

 ==> quasi-Newton: applying BFGS update  1

  USING THE DIRECT SOLVER WITH   5 PROCESSORS

     CHECK POINT   START OF SOLVER    

  NUMBER OF EQUATIONS =     34476     NUMBER OF RHS =    1
  NUMBER OF FLOATING PT. OPERATIONS =  7.83E+08

     CHECK POINT  END OF SOLVER       

       ELAPSED USER TIME (SEC)      =  0.10000    
       ELAPSED SYSTEM TIME (SEC)    =   0.0000    
       ELAPSED TOTAL CPU TIME (SEC) =  0.10000    
       ELAPSED WALLCLOCK TIME (SEC) =          0
 ==> quasi-Newton:  skipped BFGS update  1

               CONVERGENCE CHECKS FOR EQUILIBRIUM ITERATION     2


 AVERAGE FORCE                      1.240E-04   TIME AVG. FORCE       7.151E-05
 LARGEST RESIDUAL FORCE             5.363E-06   AT NODE        460   DOF  2
   INSTANCE: WAIST-UP-1                                                                      
 LARGEST INCREMENT OF DISP.         2.694E-04   AT NODE        288   DOF  3
   INSTANCE: WAIST-UP-1                                                                      
 LARGEST CORRECTION TO DISP.       -3.915E-06   AT NODE        499   DOF  3
   INSTANCE: WAIST-UP-1                                                                      
          FORCE     EQUILIBRIUM NOT ACHIEVED WITHIN TOLERANCE.

 AVERAGE MOMENT                     1.596E-08   TIME AVG. MOMENT      1.000E-02
 LARGEST RESIDUAL MOMENT            1.687E-09   AT NODE        460   DOF  4
   INSTANCE: WAIST-UP-1                                                                      
 LARGEST INCREMENT OF ROTATION     -1.728E-02   AT NODE         90   DOF  4
   INSTANCE: WAIST-UP-1                                                                      
 LARGEST CORRECTION TO ROTATION     4.087E-04   AT NODE         90   DOF  4
   INSTANCE: WAIST-UP-1                                                                      
          THERE IS ZERO MOMENT    EVERYWHERE
 

 ***WARNING: THERE IS ZERO MOMENT EVERYWHERE IN THE MODEL BASED ON THE DEFAULT 
             CRITERION. PLEASE CHECK THE VALUE OF THE AVERAGE MOMENT DURING THE 
             CURRENT ITERATION TO VERIFY THAT THE MOMENT IS SMALL ENOUGH TO BE 
             TREATED AS ZERO. IF NOT, PLEASE USE THE SOLUTION CONTROLS TO RESET 
             THE CRITERION FOR ZERO MOMENT.

 ==> quasi-Newton: applying BFGS update  1

  USING THE DIRECT SOLVER WITH   5 PROCESSORS

     CHECK POINT   START OF SOLVER    

  NUMBER OF EQUATIONS =     34476     NUMBER OF RHS =    1
  NUMBER OF FLOATING PT. OPERATIONS =  7.83E+08

     CHECK POINT  END OF SOLVER       

       ELAPSED USER TIME (SEC)      =  0.20000    
       ELAPSED SYSTEM TIME (SEC)    =   0.0000    
       ELAPSED TOTAL CPU TIME (SEC) =  0.20000    
       ELAPSED WALLCLOCK TIME (SEC) =          0

               CONVERGENCE CHECKS FOR EQUILIBRIUM ITERATION     3


 AVERAGE FORCE                      1.240E-04   TIME AVG. FORCE       7.151E-05
 LARGEST RESIDUAL FORCE             6.757E-08   AT NODE        460   DOF  2
   INSTANCE: WAIST-UP-1                                                                      
 LARGEST INCREMENT OF DISP.         2.691E-04   AT NODE        288   DOF  3
   INSTANCE: WAIST-UP-1                                                                      
 LARGEST CORRECTION TO DISP.       -4.200E-07   AT NODE        499   DOF  3
   INSTANCE: WAIST-UP-1                                                                      
          THE FORCE     EQUILIBRIUM EQUATIONS HAVE CONVERGED

 AVERAGE MOMENT                     1.596E-08   TIME AVG. MOMENT      1.000E-02
 LARGEST RESIDUAL MOMENT            1.722E-11   AT NODE        771   DOF  4
   INSTANCE: WAIST-MIDDLE-1                                                                  
 LARGEST INCREMENT OF ROTATION     -1.723E-02   AT NODE         90   DOF  4
   INSTANCE: WAIST-UP-1                                                                      
 LARGEST CORRECTION TO ROTATION     4.670E-05   AT NODE         90   DOF  4
   INSTANCE: WAIST-UP-1                                                                      
          THERE IS ZERO MOMENT    EVERYWHERE
 

 ***WARNING: THERE IS ZERO MOMENT EVERYWHERE IN THE MODEL BASED ON THE DEFAULT 
             CRITERION. PLEASE CHECK THE VALUE OF THE AVERAGE MOMENT DURING THE 
             CURRENT ITERATION TO VERIFY THAT THE MOMENT IS SMALL ENOUGH TO BE 
             TREATED AS ZERO. IF NOT, PLEASE USE THE SOLUTION CONTROLS TO RESET 
             THE CRITERION FOR ZERO MOMENT.
          TIME INCREMENT MAY NOW INCREASE TO    3.375E-03

 ITERATION SUMMARY FOR THE INCREMENT:   3 TOTAL ITERATIONS, OF WHICH
   0 ARE SEVERE DISCONTINUITY ITERATIONS AND  3 ARE EQUILIBRIUM ITERATIONS.

 TIME INCREMENT COMPLETED  2.250E-03,  FRACTION OF STEP COMPLETED  5.750E-03
 STEP TIME COMPLETED       5.750E-03,  TOTAL TIME COMPLETED        5.750E-03


  INCREMENT     5 STARTS. ATTEMPT NUMBER  1, TIME INCREMENT  3.375E-03

 ==> quasi-Newton: performing full factorization

  USING THE DIRECT SOLVER WITH   5 PROCESSORS

     CHECK POINT   START OF SOLVER    

  NUMBER OF EQUATIONS =     34476     NUMBER OF RHS =    1
  NUMBER OF FLOATING PT. OPERATIONS =  7.83E+08

     CHECK POINT  END OF SOLVER       

       ELAPSED USER TIME (SEC)      =  0.60000    
       ELAPSED SYSTEM TIME (SEC)    =  0.10000    
       ELAPSED TOTAL CPU TIME (SEC) =  0.70000    
       ELAPSED WALLCLOCK TIME (SEC) =          1

               CONVERGENCE CHECKS FOR EQUILIBRIUM ITERATION     1


 AVERAGE FORCE                      1.906E-04   TIME AVG. FORCE       1.013E-04
 LARGEST RESIDUAL FORCE             4.696E-05   AT NODE        131   DOF  2
   INSTANCE: WAIST-UP-1                                                                      
 LARGEST INCREMENT OF DISP.         3.068E-04   AT NODE        288   DOF  3
   INSTANCE: WAIST-UP-1                                                                      
 LARGEST CORRECTION TO DISP.       -9.717E-05   AT NODE        499   DOF  3
   INSTANCE: WAIST-UP-1                                                                      
          FORCE     EQUILIBRIUM NOT ACHIEVED WITHIN TOLERANCE.

 AVERAGE MOMENT                     2.320E-08   TIME AVG. MOMENT      1.000E-02
 LARGEST RESIDUAL MOMENT           -3.962E-08   AT NODE        771   DOF  4
   INSTANCE: WAIST-MIDDLE-1                                                                  
 LARGEST INCREMENT OF ROTATION     -1.936E-02   AT NODE         22   DOF  4
   INSTANCE: WAIST-UP-1                                                                      
 LARGEST CORRECTION TO ROTATION     6.534E-03   AT NODE         90   DOF  4
   INSTANCE: WAIST-UP-1                                                                      
          THERE IS ZERO MOMENT    EVERYWHERE
 

 ***WARNING: THERE IS ZERO MOMENT EVERYWHERE IN THE MODEL BASED ON THE DEFAULT 
             CRITERION. PLEASE CHECK THE VALUE OF THE AVERAGE MOMENT DURING THE 
             CURRENT ITERATION TO VERIFY THAT THE MOMENT IS SMALL ENOUGH TO BE 
             TREATED AS ZERO. IF NOT, PLEASE USE THE SOLUTION CONTROLS TO RESET 
             THE CRITERION FOR ZERO MOMENT.

 ==> quasi-Newton: applying BFGS update  1

  USING THE DIRECT SOLVER WITH   5 PROCESSORS

     CHECK POINT   START OF SOLVER    

  NUMBER OF EQUATIONS =     34476     NUMBER OF RHS =    1
  NUMBER OF FLOATING PT. OPERATIONS =  7.83E+08

     CHECK POINT  END OF SOLVER       

       ELAPSED USER TIME (SEC)      =  0.20000    
       ELAPSED SYSTEM TIME (SEC)    =   0.0000    
       ELAPSED TOTAL CPU TIME (SEC) =  0.20000    
       ELAPSED WALLCLOCK TIME (SEC) =          0
 ==> quasi-Newton:  skipped BFGS update  1

               CONVERGENCE CHECKS FOR EQUILIBRIUM ITERATION     2


 AVERAGE FORCE                      1.905E-04   TIME AVG. FORCE       1.013E-04
 LARGEST RESIDUAL FORCE             6.968E-06   AT NODE        460   DOF  2
   INSTANCE: WAIST-UP-1                                                                      
 LARGEST INCREMENT OF DISP.         3.030E-04   AT NODE        288   DOF  3
   INSTANCE: WAIST-UP-1                                                                      
 LARGEST CORRECTION TO DISP.       -4.595E-06   AT NODE        499   DOF  3
   INSTANCE: WAIST-UP-1                                                                      
          FORCE     EQUILIBRIUM NOT ACHIEVED WITHIN TOLERANCE.

 AVERAGE MOMENT                     2.318E-08   TIME AVG. MOMENT      1.000E-02
 LARGEST RESIDUAL MOMENT            2.556E-09   AT NODE        460   DOF  4
   INSTANCE: WAIST-UP-1                                                                      
 LARGEST INCREMENT OF ROTATION     -1.890E-02   AT NODE         22   DOF  4
   INSTANCE: WAIST-UP-1                                                                      
 LARGEST CORRECTION TO ROTATION     4.757E-04   AT NODE         90   DOF  4
   INSTANCE: WAIST-UP-1                                                                      
          THERE IS ZERO MOMENT    EVERYWHERE
 

 ***WARNING: THERE IS ZERO MOMENT EVERYWHERE IN THE MODEL BASED ON THE DEFAULT 
             CRITERION. PLEASE CHECK THE VALUE OF THE AVERAGE MOMENT DURING THE 
             CURRENT ITERATION TO VERIFY THAT THE MOMENT IS SMALL ENOUGH TO BE 
             TREATED AS ZERO. IF NOT, PLEASE USE THE SOLUTION CONTROLS TO RESET 
             THE CRITERION FOR ZERO MOMENT.

 ==> quasi-Newton: applying BFGS update  1

  USING THE DIRECT SOLVER WITH   5 PROCESSORS

     CHECK POINT   START OF SOLVER    

  NUMBER OF EQUATIONS =     34476     NUMBER OF RHS =    1
  NUMBER OF FLOATING PT. OPERATIONS =  7.83E+08

     CHECK POINT  END OF SOLVER       

       ELAPSED USER TIME (SEC)      =  0.10000    
       ELAPSED SYSTEM TIME (SEC)    =   0.0000    
       ELAPSED TOTAL CPU TIME (SEC) =  0.10000    
       ELAPSED WALLCLOCK TIME (SEC) =          0

               CONVERGENCE CHECKS FOR EQUILIBRIUM ITERATION     3


 AVERAGE FORCE                      1.905E-04   TIME AVG. FORCE       1.013E-04
 LARGEST RESIDUAL FORCE             1.381E-07   AT NODE        460   DOF  2
   INSTANCE: WAIST-UP-1                                                                      
 LARGEST INCREMENT OF DISP.         3.026E-04   AT NODE        288   DOF  3
   INSTANCE: WAIST-UP-1                                                                      
 LARGEST CORRECTION TO DISP.       -5.030E-07   AT NODE        499   DOF  3
   INSTANCE: WAIST-UP-1                                                                      
          THE FORCE     EQUILIBRIUM EQUATIONS HAVE CONVERGED

 AVERAGE MOMENT                     2.317E-08   TIME AVG. MOMENT      1.000E-02
 LARGEST RESIDUAL MOMENT            3.481E-11   AT NODE         22   DOF  4
   INSTANCE: WAIST-UP-1                                                                      
 LARGEST INCREMENT OF ROTATION     -1.884E-02   AT NODE         22   DOF  4
   INSTANCE: WAIST-UP-1                                                                      
 LARGEST CORRECTION TO ROTATION     5.603E-05   AT NODE         90   DOF  4
   INSTANCE: WAIST-UP-1                                                                      
          THERE IS ZERO MOMENT    EVERYWHERE
 

 ***WARNING: THERE IS ZERO MOMENT EVERYWHERE IN THE MODEL BASED ON THE DEFAULT 
             CRITERION. PLEASE CHECK THE VALUE OF THE AVERAGE MOMENT DURING THE 
             CURRENT ITERATION TO VERIFY THAT THE MOMENT IS SMALL ENOUGH TO BE 
             TREATED AS ZERO. IF NOT, PLEASE USE THE SOLUTION CONTROLS TO RESET 
             THE CRITERION FOR ZERO MOMENT.
          TIME INCREMENT MAY NOW INCREASE TO    5.063E-03

 ITERATION SUMMARY FOR THE INCREMENT:   3 TOTAL ITERATIONS, OF WHICH
   0 ARE SEVERE DISCONTINUITY ITERATIONS AND  3 ARE EQUILIBRIUM ITERATIONS.

 TIME INCREMENT COMPLETED  3.375E-03,  FRACTION OF STEP COMPLETED  9.125E-03
 STEP TIME COMPLETED       9.125E-03,  TOTAL TIME COMPLETED        9.125E-03


  INCREMENT     6 STARTS. ATTEMPT NUMBER  1, TIME INCREMENT  5.063E-03

 ==> quasi-Newton: performing full factorization

  USING THE DIRECT SOLVER WITH   5 PROCESSORS

     CHECK POINT   START OF SOLVER    

  NUMBER OF EQUATIONS =     34476     NUMBER OF RHS =    1
  NUMBER OF FLOATING PT. OPERATIONS =  7.83E+08

     CHECK POINT  END OF SOLVER       

       ELAPSED USER TIME (SEC)      =  0.90000    
       ELAPSED SYSTEM TIME (SEC)    =  0.10000    
       ELAPSED TOTAL CPU TIME (SEC) =   1.0000    
       ELAPSED WALLCLOCK TIME (SEC) =          0

               CONVERGENCE CHECKS FOR EQUILIBRIUM ITERATION     1


 AVERAGE FORCE                      2.816E-04   TIME AVG. FORCE       1.373E-04
 LARGEST RESIDUAL FORCE             5.354E-05   AT NODE        131   DOF  2
   INSTANCE: WAIST-UP-1                                                                      
 LARGEST INCREMENT OF DISP.         3.429E-04   AT NODE        288   DOF  3
   INSTANCE: WAIST-UP-1                                                                      
 LARGEST CORRECTION TO DISP.       -1.109E-04   AT NODE        288   DOF  3
   INSTANCE: WAIST-UP-1                                                                      
          FORCE     EQUILIBRIUM NOT ACHIEVED WITHIN TOLERANCE.

 AVERAGE MOMENT                     3.269E-08   TIME AVG. MOMENT      1.000E-02
 LARGEST RESIDUAL MOMENT           -5.037E-08   AT NODE        771   DOF  4
   INSTANCE: WAIST-MIDDLE-1                                                                  
 LARGEST INCREMENT OF ROTATION      2.191E-02   AT NODE        102   DOF  4
   INSTANCE: WAIST-UP-1                                                                      
 LARGEST CORRECTION TO ROTATION     7.166E-03   AT NODE         90   DOF  4
   INSTANCE: WAIST-UP-1                                                                      
          THERE IS ZERO MOMENT    EVERYWHERE
 

 ***WARNING: THERE IS ZERO MOMENT EVERYWHERE IN THE MODEL BASED ON THE DEFAULT 
             CRITERION. PLEASE CHECK THE VALUE OF THE AVERAGE MOMENT DURING THE 
             CURRENT ITERATION TO VERIFY THAT THE MOMENT IS SMALL ENOUGH TO BE 
             TREATED AS ZERO. IF NOT, PLEASE USE THE SOLUTION CONTROLS TO RESET 
             THE CRITERION FOR ZERO MOMENT.

 ==> quasi-Newton: applying BFGS update  1

  USING THE DIRECT SOLVER WITH   5 PROCESSORS

     CHECK POINT   START OF SOLVER    

  NUMBER OF EQUATIONS =     34476     NUMBER OF RHS =    1
  NUMBER OF FLOATING PT. OPERATIONS =  7.83E+08

     CHECK POINT  END OF SOLVER       

       ELAPSED USER TIME (SEC)      =  0.10000    
       ELAPSED SYSTEM TIME (SEC)    =   0.0000    
       ELAPSED TOTAL CPU TIME (SEC) =  0.10000    
       ELAPSED WALLCLOCK TIME (SEC) =          0
 ==> quasi-Newton:  skipped BFGS update  1

               CONVERGENCE CHECKS FOR EQUILIBRIUM ITERATION     2


 AVERAGE FORCE                      2.814E-04   TIME AVG. FORCE       1.373E-04
 LARGEST RESIDUAL FORCE             7.931E-06   AT NODE        460   DOF  2
   INSTANCE: WAIST-UP-1                                                                      
 LARGEST INCREMENT OF DISP.         3.393E-04   AT NODE        217   DOF  3
   INSTANCE: WAIST-UP-1                                                                      
 LARGEST CORRECTION TO DISP.       -4.822E-06   AT NODE        499   DOF  3
   INSTANCE: WAIST-UP-1                                                                      
          FORCE     EQUILIBRIUM NOT ACHIEVED WITHIN TOLERANCE.

 AVERAGE MOMENT                     3.265E-08   TIME AVG. MOMENT      1.000E-02
 LARGEST RESIDUAL MOMENT            3.335E-09   AT NODE        460   DOF  4
   INSTANCE: WAIST-UP-1                                                                      
 LARGEST INCREMENT OF ROTATION      2.158E-02   AT NODE        102   DOF  4
   INSTANCE: WAIST-UP-1                                                                      
 LARGEST CORRECTION TO ROTATION     5.049E-04   AT NODE         90   DOF  4
   INSTANCE: WAIST-UP-1                                                                      
          THERE IS ZERO MOMENT    EVERYWHERE
 

 ***WARNING: THERE IS ZERO MOMENT EVERYWHERE IN THE MODEL BASED ON THE DEFAULT 
             CRITERION. PLEASE CHECK THE VALUE OF THE AVERAGE MOMENT DURING THE 
             CURRENT ITERATION TO VERIFY THAT THE MOMENT IS SMALL ENOUGH TO BE 
             TREATED AS ZERO. IF NOT, PLEASE USE THE SOLUTION CONTROLS TO RESET 
             THE CRITERION FOR ZERO MOMENT.

 ==> quasi-Newton: applying BFGS update  1

  USING THE DIRECT SOLVER WITH   5 PROCESSORS

     CHECK POINT   START OF SOLVER    

  NUMBER OF EQUATIONS =     34476     NUMBER OF RHS =    1
  NUMBER OF FLOATING PT. OPERATIONS =  7.83E+08

     CHECK POINT  END OF SOLVER       

       ELAPSED USER TIME (SEC)      =   0.0000    
       ELAPSED SYSTEM TIME (SEC)    =   0.0000    
       ELAPSED TOTAL CPU TIME (SEC) =   0.0000    
       ELAPSED WALLCLOCK TIME (SEC) =          0

               CONVERGENCE CHECKS FOR EQUILIBRIUM ITERATION     3


 AVERAGE FORCE                      2.814E-04   TIME AVG. FORCE       1.373E-04
 LARGEST RESIDUAL FORCE             1.969E-07   AT NODE        460   DOF  2
   INSTANCE: WAIST-UP-1                                                                      
 LARGEST INCREMENT OF DISP.         3.390E-04   AT NODE        217   DOF  3
   INSTANCE: WAIST-UP-1                                                                      
 LARGEST CORRECTION TO DISP.       -5.086E-07   AT NODE        499   DOF  3
   INSTANCE: WAIST-UP-1                                                                      
          THE FORCE     EQUILIBRIUM EQUATIONS HAVE CONVERGED

 AVERAGE MOMENT                     3.264E-08   TIME AVG. MOMENT      1.000E-02
 LARGEST RESIDUAL MOMENT            5.662E-11   AT NODE         22   DOF  4
   INSTANCE: WAIST-UP-1                                                                      
 LARGEST INCREMENT OF ROTATION      2.155E-02   AT NODE        102   DOF  4
   INSTANCE: WAIST-UP-1                                                                      
 LARGEST CORRECTION TO ROTATION     5.773E-05   AT NODE         90   DOF  4
   INSTANCE: WAIST-UP-1                                                                      
          THERE IS ZERO MOMENT    EVERYWHERE
 

 ***WARNING: THERE IS ZERO MOMENT EVERYWHERE IN THE MODEL BASED ON THE DEFAULT 
             CRITERION. PLEASE CHECK THE VALUE OF THE AVERAGE MOMENT DURING THE 
             CURRENT ITERATION TO VERIFY THAT THE MOMENT IS SMALL ENOUGH TO BE 
             TREATED AS ZERO. IF NOT, PLEASE USE THE SOLUTION CONTROLS TO RESET 
             THE CRITERION FOR ZERO MOMENT.
          TIME INCREMENT MAY NOW INCREASE TO    7.594E-03

 ITERATION SUMMARY FOR THE INCREMENT:   3 TOTAL ITERATIONS, OF WHICH
   0 ARE SEVERE DISCONTINUITY ITERATIONS AND  3 ARE EQUILIBRIUM ITERATIONS.

 TIME INCREMENT COMPLETED  5.063E-03,  FRACTION OF STEP COMPLETED  1.419E-02
 STEP TIME COMPLETED       1.419E-02,  TOTAL TIME COMPLETED        1.419E-02


  INCREMENT     7 STARTS. ATTEMPT NUMBER  1, TIME INCREMENT  7.594E-03

 ==> quasi-Newton: performing full factorization

  USING THE DIRECT SOLVER WITH   5 PROCESSORS

     CHECK POINT   START OF SOLVER    

  NUMBER OF EQUATIONS =     34476     NUMBER OF RHS =    1
  NUMBER OF FLOATING PT. OPERATIONS =  7.83E+08

     CHECK POINT  END OF SOLVER       

       ELAPSED USER TIME (SEC)      =  0.50000    
       ELAPSED SYSTEM TIME (SEC)    =  0.10000    
       ELAPSED TOTAL CPU TIME (SEC) =  0.60000    
       ELAPSED WALLCLOCK TIME (SEC) =          0

               CONVERGENCE CHECKS FOR EQUILIBRIUM ITERATION     1


 AVERAGE FORCE                      4.077E-04   TIME AVG. FORCE       1.823E-04
 LARGEST RESIDUAL FORCE            -7.726E-05   AT NODE         91   DOF  2
   INSTANCE: WAIST-UP-1                                                                      
 LARGEST INCREMENT OF DISP.         3.988E-04   AT NODE        217   DOF  3
   INSTANCE: WAIST-UP-1                                                                      
 LARGEST CORRECTION TO DISP.       -1.217E-04   AT NODE        288   DOF  3
   INSTANCE: WAIST-UP-1                                                                      
          FORCE     EQUILIBRIUM NOT ACHIEVED WITHIN TOLERANCE.

 AVERAGE MOMENT                     4.519E-08   TIME AVG. MOMENT      1.000E-02
 LARGEST RESIDUAL MOMENT           -5.941E-08   AT NODE        771   DOF  4
   INSTANCE: WAIST-MIDDLE-1                                                                  
 LARGEST INCREMENT OF ROTATION      2.662E-02   AT NODE        338   DOF  4
   INSTANCE: WAIST-UP-1                                                                      
 LARGEST CORRECTION TO ROTATION     7.684E-03   AT NODE         90   DOF  4
   INSTANCE: WAIST-UP-1                                                                      
          THERE IS ZERO MOMENT    EVERYWHERE
 

 ***WARNING: THERE IS ZERO MOMENT EVERYWHERE IN THE MODEL BASED ON THE DEFAULT 
             CRITERION. PLEASE CHECK THE VALUE OF THE AVERAGE MOMENT DURING THE 
             CURRENT ITERATION TO VERIFY THAT THE MOMENT IS SMALL ENOUGH TO BE 
             TREATED AS ZERO. IF NOT, PLEASE USE THE SOLUTION CONTROLS TO RESET 
             THE CRITERION FOR ZERO MOMENT.

 ==> quasi-Newton: applying BFGS update  1

  USING THE DIRECT SOLVER WITH   5 PROCESSORS

     CHECK POINT   START OF SOLVER    

  NUMBER OF EQUATIONS =     34476     NUMBER OF RHS =    1
  NUMBER OF FLOATING PT. OPERATIONS =  7.83E+08

     CHECK POINT  END OF SOLVER       

       ELAPSED USER TIME (SEC)      =  0.10000    
       ELAPSED SYSTEM TIME (SEC)    =  0.10000    
       ELAPSED TOTAL CPU TIME (SEC) =  0.20000    
       ELAPSED WALLCLOCK TIME (SEC) =          0
 ==> quasi-Newton:  skipped BFGS update  1

               CONVERGENCE CHECKS FOR EQUILIBRIUM ITERATION     2


 AVERAGE FORCE                      4.073E-04   TIME AVG. FORCE       1.823E-04
 LARGEST RESIDUAL FORCE            -1.701E-05   AT NODE         91   DOF  2
   INSTANCE: WAIST-UP-1                                                                      
 LARGEST INCREMENT OF DISP.         3.954E-04   AT NODE        217   DOF  3
   INSTANCE: WAIST-UP-1                                                                      
 LARGEST CORRECTION TO DISP.       -4.670E-06   AT NODE        499   DOF  3
   INSTANCE: WAIST-UP-1                                                                      
          FORCE     EQUILIBRIUM NOT ACHIEVED WITHIN TOLERANCE.

 AVERAGE MOMENT                     4.514E-08   TIME AVG. MOMENT      1.000E-02
 LARGEST RESIDUAL MOMENT            3.985E-09   AT NODE        460   DOF  4
   INSTANCE: WAIST-UP-1                                                                      
 LARGEST INCREMENT OF ROTATION      2.629E-02   AT NODE        338   DOF  4
   INSTANCE: WAIST-UP-1                                                                      
 LARGEST CORRECTION TO ROTATION    -6.377E-04   AT NODE         35   DOF  4
   INSTANCE: WAIST-UP-1                                                                      
          THERE IS ZERO MOMENT    EVERYWHERE
 

 ***WARNING: THERE IS ZERO MOMENT EVERYWHERE IN THE MODEL BASED ON THE DEFAULT 
             CRITERION. PLEASE CHECK THE VALUE OF THE AVERAGE MOMENT DURING THE 
             CURRENT ITERATION TO VERIFY THAT THE MOMENT IS SMALL ENOUGH TO BE 
             TREATED AS ZERO. IF NOT, PLEASE USE THE SOLUTION CONTROLS TO RESET 
             THE CRITERION FOR ZERO MOMENT.

 ==> quasi-Newton: applying BFGS update  1

  USING THE DIRECT SOLVER WITH   5 PROCESSORS

     CHECK POINT   START OF SOLVER    

  NUMBER OF EQUATIONS =     34476     NUMBER OF RHS =    1
  NUMBER OF FLOATING PT. OPERATIONS =  7.83E+08

     CHECK POINT  END OF SOLVER       

       ELAPSED USER TIME (SEC)      =  0.20000    
       ELAPSED SYSTEM TIME (SEC)    =   0.0000    
       ELAPSED TOTAL CPU TIME (SEC) =  0.20000    
       ELAPSED WALLCLOCK TIME (SEC) =          0

               CONVERGENCE CHECKS FOR EQUILIBRIUM ITERATION     3


 AVERAGE FORCE                      4.073E-04   TIME AVG. FORCE       1.823E-04
 LARGEST RESIDUAL FORCE            -2.392E-07   AT NODE        252   DOF  2
   INSTANCE: WAIST-UP-1                                                                      
 LARGEST INCREMENT OF DISP.         3.951E-04   AT NODE        217   DOF  3
   INSTANCE: WAIST-UP-1                                                                      
 LARGEST CORRECTION TO DISP.       -4.646E-07   AT NODE        532   DOF  3
   INSTANCE: WAIST-UP-1                                                                      
          THE FORCE     EQUILIBRIUM EQUATIONS HAVE CONVERGED

 AVERAGE MOMENT                     4.513E-08   TIME AVG. MOMENT      1.000E-02
 LARGEST RESIDUAL MOMENT           -6.816E-11   AT NODE        227   DOF  5
   INSTANCE: WAIST-UP-1                                                                      
 LARGEST INCREMENT OF ROTATION      2.627E-02   AT NODE        338   DOF  4
   INSTANCE: WAIST-UP-1                                                                      
 LARGEST CORRECTION TO ROTATION    -7.075E-05   AT NODE         35   DOF  4
   INSTANCE: WAIST-UP-1                                                                      
          THERE IS ZERO MOMENT    EVERYWHERE
 

 ***WARNING: THERE IS ZERO MOMENT EVERYWHERE IN THE MODEL BASED ON THE DEFAULT 
             CRITERION. PLEASE CHECK THE VALUE OF THE AVERAGE MOMENT DURING THE 
             CURRENT ITERATION TO VERIFY THAT THE MOMENT IS SMALL ENOUGH TO BE 
             TREATED AS ZERO. IF NOT, PLEASE USE THE SOLUTION CONTROLS TO RESET 
             THE CRITERION FOR ZERO MOMENT.
          TIME INCREMENT MAY NOW INCREASE TO    1.139E-02

 ITERATION SUMMARY FOR THE INCREMENT:   3 TOTAL ITERATIONS, OF WHICH
   0 ARE SEVERE DISCONTINUITY ITERATIONS AND  3 ARE EQUILIBRIUM ITERATIONS.

 TIME INCREMENT COMPLETED  7.594E-03,  FRACTION OF STEP COMPLETED  2.178E-02
 STEP TIME COMPLETED       2.178E-02,  TOTAL TIME COMPLETED        2.178E-02


  INCREMENT     8 STARTS. ATTEMPT NUMBER  1, TIME INCREMENT  1.139E-02

 ==> quasi-Newton: performing full factorization

  USING THE DIRECT SOLVER WITH   5 PROCESSORS

     CHECK POINT   START OF SOLVER    

  NUMBER OF EQUATIONS =     34476     NUMBER OF RHS =    1
  NUMBER OF FLOATING PT. OPERATIONS =  7.83E+08

     CHECK POINT  END OF SOLVER       

       ELAPSED USER TIME (SEC)      =  0.60000    
       ELAPSED SYSTEM TIME (SEC)    =  0.10000    
       ELAPSED TOTAL CPU TIME (SEC) =  0.70000    
       ELAPSED WALLCLOCK TIME (SEC) =          1

               CONVERGENCE CHECKS FOR EQUILIBRIUM ITERATION     1


 AVERAGE FORCE                      5.894E-04   TIME AVG. FORCE       2.404E-04
 LARGEST RESIDUAL FORCE            -1.137E-04   AT NODE         91   DOF  2
   INSTANCE: WAIST-UP-1                                                                      
 LARGEST INCREMENT OF DISP.         4.712E-04   AT NODE        217   DOF  3
   INSTANCE: WAIST-UP-1                                                                      
 LARGEST CORRECTION TO DISP.       -1.294E-04   AT NODE        288   DOF  3
   INSTANCE: WAIST-UP-1                                                                      
          FORCE     EQUILIBRIUM NOT ACHIEVED WITHIN TOLERANCE.

 AVERAGE MOMENT                     6.189E-08   TIME AVG. MOMENT      1.000E-02
 LARGEST RESIDUAL MOMENT           -6.633E-08   AT NODE        771   DOF  4
   INSTANCE: WAIST-MIDDLE-1                                                                  
 LARGEST INCREMENT OF ROTATION      3.267E-02   AT NODE        338   DOF  4
   INSTANCE: WAIST-UP-1                                                                      
 LARGEST CORRECTION TO ROTATION     8.150E-03   AT NODE         22   DOF  4
   INSTANCE: WAIST-UP-1                                                                      
          THERE IS ZERO MOMENT    EVERYWHERE
 

 ***WARNING: THERE IS ZERO MOMENT EVERYWHERE IN THE MODEL BASED ON THE DEFAULT 
             CRITERION. PLEASE CHECK THE VALUE OF THE AVERAGE MOMENT DURING THE 
             CURRENT ITERATION TO VERIFY THAT THE MOMENT IS SMALL ENOUGH TO BE 
             TREATED AS ZERO. IF NOT, PLEASE USE THE SOLUTION CONTROLS TO RESET 
             THE CRITERION FOR ZERO MOMENT.

 ==> quasi-Newton: applying BFGS update  1

  USING THE DIRECT SOLVER WITH   5 PROCESSORS

     CHECK POINT   START OF SOLVER    

  NUMBER OF EQUATIONS =     34476     NUMBER OF RHS =    1
  NUMBER OF FLOATING PT. OPERATIONS =  7.83E+08

     CHECK POINT  END OF SOLVER       

       ELAPSED USER TIME (SEC)      =  0.20000    
       ELAPSED SYSTEM TIME (SEC)    =   0.0000    
       ELAPSED TOTAL CPU TIME (SEC) =  0.20000    
       ELAPSED WALLCLOCK TIME (SEC) =          0
 ==> quasi-Newton:  skipped BFGS update  1

               CONVERGENCE CHECKS FOR EQUILIBRIUM ITERATION     2


 AVERAGE FORCE                      5.886E-04   TIME AVG. FORCE       2.403E-04
 LARGEST RESIDUAL FORCE            -3.085E-05   AT NODE         91   DOF  2
   INSTANCE: WAIST-UP-1                                                                      
 LARGEST INCREMENT OF DISP.         4.678E-04   AT NODE        217   DOF  3
   INSTANCE: WAIST-UP-1                                                                      
 LARGEST CORRECTION TO DISP.       -5.220E-06   AT NODE         50   DOF  3
   INSTANCE: WAIST-UP-1                                                                      
          FORCE     EQUILIBRIUM NOT ACHIEVED WITHIN TOLERANCE.

 AVERAGE MOMENT                     6.181E-08   TIME AVG. MOMENT      1.000E-02
 LARGEST RESIDUAL MOMENT            4.595E-09   AT NODE        460   DOF  4
   INSTANCE: WAIST-UP-1                                                                      
 LARGEST INCREMENT OF ROTATION      3.205E-02   AT NODE        338   DOF  4
   INSTANCE: WAIST-UP-1                                                                      
 LARGEST CORRECTION TO ROTATION    -9.390E-04   AT NODE         35   DOF  4
   INSTANCE: WAIST-UP-1                                                                      
          THERE IS ZERO MOMENT    EVERYWHERE
 

 ***WARNING: THERE IS ZERO MOMENT EVERYWHERE IN THE MODEL BASED ON THE DEFAULT 
             CRITERION. PLEASE CHECK THE VALUE OF THE AVERAGE MOMENT DURING THE 
             CURRENT ITERATION TO VERIFY THAT THE MOMENT IS SMALL ENOUGH TO BE 
             TREATED AS ZERO. IF NOT, PLEASE USE THE SOLUTION CONTROLS TO RESET 
             THE CRITERION FOR ZERO MOMENT.

 ==> quasi-Newton: applying BFGS update  1

  USING THE DIRECT SOLVER WITH   5 PROCESSORS

     CHECK POINT   START OF SOLVER    

  NUMBER OF EQUATIONS =     34476     NUMBER OF RHS =    1
  NUMBER OF FLOATING PT. OPERATIONS =  7.83E+08

     CHECK POINT  END OF SOLVER       

       ELAPSED USER TIME (SEC)      =  0.10000    
       ELAPSED SYSTEM TIME (SEC)    =  0.10000    
       ELAPSED TOTAL CPU TIME (SEC) =  0.20000    
       ELAPSED WALLCLOCK TIME (SEC) =          0

               CONVERGENCE CHECKS FOR EQUILIBRIUM ITERATION     3


 AVERAGE FORCE                      5.886E-04   TIME AVG. FORCE       2.403E-04
 LARGEST RESIDUAL FORCE            -7.005E-07   AT NODE        252   DOF  2
   INSTANCE: WAIST-UP-1                                                                      
 LARGEST INCREMENT OF DISP.         4.675E-04   AT NODE        217   DOF  3
   INSTANCE: WAIST-UP-1                                                                      
 LARGEST CORRECTION TO DISP.       -6.951E-07   AT NODE         50   DOF  3
   INSTANCE: WAIST-UP-1                                                                      
          THE FORCE     EQUILIBRIUM EQUATIONS HAVE CONVERGED

 AVERAGE MOMENT                     6.180E-08   TIME AVG. MOMENT      1.000E-02
 LARGEST RESIDUAL MOMENT           -1.547E-10   AT NODE        227   DOF  5
   INSTANCE: WAIST-UP-1                                                                      
 LARGEST INCREMENT OF ROTATION      3.198E-02   AT NODE        338   DOF  4
   INSTANCE: WAIST-UP-1                                                                      
 LARGEST CORRECTION TO ROTATION    -1.226E-04   AT NODE         35   DOF  4
   INSTANCE: WAIST-UP-1                                                                      
          THERE IS ZERO MOMENT    EVERYWHERE
 

 ***WARNING: THERE IS ZERO MOMENT EVERYWHERE IN THE MODEL BASED ON THE DEFAULT 
             CRITERION. PLEASE CHECK THE VALUE OF THE AVERAGE MOMENT DURING THE 
             CURRENT ITERATION TO VERIFY THAT THE MOMENT IS SMALL ENOUGH TO BE 
             TREATED AS ZERO. IF NOT, PLEASE USE THE SOLUTION CONTROLS TO RESET 
             THE CRITERION FOR ZERO MOMENT.
          TIME INCREMENT MAY NOW INCREASE TO    1.709E-02

 ITERATION SUMMARY FOR THE INCREMENT:   3 TOTAL ITERATIONS, OF WHICH
   0 ARE SEVERE DISCONTINUITY ITERATIONS AND  3 ARE EQUILIBRIUM ITERATIONS.

 TIME INCREMENT COMPLETED  1.139E-02,  FRACTION OF STEP COMPLETED  3.317E-02
 STEP TIME COMPLETED       3.317E-02,  TOTAL TIME COMPLETED        3.317E-02


  INCREMENT     9 STARTS. ATTEMPT NUMBER  1, TIME INCREMENT  1.709E-02

 ==> quasi-Newton: performing full factorization

  USING THE DIRECT SOLVER WITH   5 PROCESSORS

     CHECK POINT   START OF SOLVER    

  NUMBER OF EQUATIONS =     34476     NUMBER OF RHS =    1
  NUMBER OF FLOATING PT. OPERATIONS =  7.83E+08

     CHECK POINT  END OF SOLVER       

       ELAPSED USER TIME (SEC)      =  0.50000    
       ELAPSED SYSTEM TIME (SEC)    =  0.10000    
       ELAPSED TOTAL CPU TIME (SEC) =  0.60000    
       ELAPSED WALLCLOCK TIME (SEC) =          0

               CONVERGENCE CHECKS FOR EQUILIBRIUM ITERATION     1


 AVERAGE FORCE                      8.450E-04   TIME AVG. FORCE       3.159E-04
 LARGEST RESIDUAL FORCE            -1.366E-04   AT NODE         91   DOF  2
   INSTANCE: WAIST-UP-1                                                                      
 LARGEST INCREMENT OF DISP.         5.767E-04   AT NODE        484   DOF  3
   INSTANCE: WAIST-UP-1                                                                      
 LARGEST CORRECTION TO DISP.       -1.363E-04   AT NODE        288   DOF  3
   INSTANCE: WAIST-UP-1                                                                      
          FORCE     EQUILIBRIUM NOT ACHIEVED WITHIN TOLERANCE.

 AVERAGE MOMENT                     8.448E-08   TIME AVG. MOMENT      1.000E-02
 LARGEST RESIDUAL MOMENT           -8.262E-08   AT NODE          7   DOF  4
   INSTANCE: WAIST-UP-1                                                                      
 LARGEST INCREMENT OF ROTATION      3.906E-02   AT NODE        338   DOF  4
   INSTANCE: WAIST-UP-1                                                                      
 LARGEST CORRECTION TO ROTATION    -9.129E-03   AT NODE        102   DOF  4
   INSTANCE: WAIST-UP-1                                                                      
          THERE IS ZERO MOMENT    EVERYWHERE
 

 ***WARNING: THERE IS ZERO MOMENT EVERYWHERE IN THE MODEL BASED ON THE DEFAULT 
             CRITERION. PLEASE CHECK THE VALUE OF THE AVERAGE MOMENT DURING THE 
             CURRENT ITERATION TO VERIFY THAT THE MOMENT IS SMALL ENOUGH TO BE 
             TREATED AS ZERO. IF NOT, PLEASE USE THE SOLUTION CONTROLS TO RESET 
             THE CRITERION FOR ZERO MOMENT.

 ==> quasi-Newton: applying BFGS update  1

  USING THE DIRECT SOLVER WITH   5 PROCESSORS

     CHECK POINT   START OF SOLVER    

  NUMBER OF EQUATIONS =     34476     NUMBER OF RHS =    1
  NUMBER OF FLOATING PT. OPERATIONS =  7.83E+08

     CHECK POINT  END OF SOLVER       

       ELAPSED USER TIME (SEC)      =  0.10000    
       ELAPSED SYSTEM TIME (SEC)    =   0.0000    
       ELAPSED TOTAL CPU TIME (SEC) =  0.10000    
       ELAPSED WALLCLOCK TIME (SEC) =          0
 ==> quasi-Newton:  skipped BFGS update  1

               CONVERGENCE CHECKS FOR EQUILIBRIUM ITERATION     2


 AVERAGE FORCE                      8.438E-04   TIME AVG. FORCE       3.158E-04
 LARGEST RESIDUAL FORCE            -4.428E-05   AT NODE         91   DOF  2
   INSTANCE: WAIST-UP-1                                                                      
 LARGEST INCREMENT OF DISP.         5.733E-04   AT NODE        484   DOF  3
   INSTANCE: WAIST-UP-1                                                                      
 LARGEST CORRECTION TO DISP.       -6.523E-06   AT NODE         50   DOF  3
   INSTANCE: WAIST-UP-1                                                                      
          FORCE     EQUILIBRIUM NOT ACHIEVED WITHIN TOLERANCE.

 AVERAGE MOMENT                     8.436E-08   TIME AVG. MOMENT      1.000E-02
 LARGEST RESIDUAL MOMENT           -6.962E-09   AT NODE          1   DOF  4
   INSTANCE: WAIST-UP-1                                                                      
 LARGEST INCREMENT OF ROTATION      3.806E-02   AT NODE        338   DOF  4
   INSTANCE: WAIST-UP-1                                                                      
 LARGEST CORRECTION TO ROTATION    -1.193E-03   AT NODE         35   DOF  4
   INSTANCE: WAIST-UP-1                                                                      
          THERE IS ZERO MOMENT    EVERYWHERE
 

 ***WARNING: THERE IS ZERO MOMENT EVERYWHERE IN THE MODEL BASED ON THE DEFAULT 
             CRITERION. PLEASE CHECK THE VALUE OF THE AVERAGE MOMENT DURING THE 
             CURRENT ITERATION TO VERIFY THAT THE MOMENT IS SMALL ENOUGH TO BE 
             TREATED AS ZERO. IF NOT, PLEASE USE THE SOLUTION CONTROLS TO RESET 
             THE CRITERION FOR ZERO MOMENT.

 ==> quasi-Newton: applying BFGS update  1

  USING THE DIRECT SOLVER WITH   5 PROCESSORS

     CHECK POINT   START OF SOLVER    

  NUMBER OF EQUATIONS =     34476     NUMBER OF RHS =    1
  NUMBER OF FLOATING PT. OPERATIONS =  7.83E+08

     CHECK POINT  END OF SOLVER       

       ELAPSED USER TIME (SEC)      =  0.10000    
       ELAPSED SYSTEM TIME (SEC)    =  0.10000    
       ELAPSED TOTAL CPU TIME (SEC) =  0.20000    
       ELAPSED WALLCLOCK TIME (SEC) =          0

               CONVERGENCE CHECKS FOR EQUILIBRIUM ITERATION     3


 AVERAGE FORCE                      8.436E-04   TIME AVG. FORCE       3.157E-04
 LARGEST RESIDUAL FORCE            -1.104E-06   AT NODE        252   DOF  2
   INSTANCE: WAIST-UP-1                                                                      
 LARGEST INCREMENT OF DISP.         5.730E-04   AT NODE        484   DOF  3
   INSTANCE: WAIST-UP-1                                                                      
 LARGEST CORRECTION TO DISP.        1.052E-06   AT NODE        148   DOF  3
   INSTANCE: WAIST-MIDDLE-1                                                                  
          THE FORCE     EQUILIBRIUM EQUATIONS HAVE CONVERGED

 AVERAGE MOMENT                     8.434E-08   TIME AVG. MOMENT      1.000E-02
 LARGEST RESIDUAL MOMENT           -3.108E-10   AT NODE        227   DOF  5
   INSTANCE: WAIST-UP-1                                                                      
 LARGEST INCREMENT OF ROTATION      3.794E-02   AT NODE        338   DOF  4
   INSTANCE: WAIST-UP-1                                                                      
 LARGEST CORRECTION TO ROTATION    -1.701E-04   AT NODE         35   DOF  4
   INSTANCE: WAIST-UP-1                                                                      
          THERE IS ZERO MOMENT    EVERYWHERE
 

 ***WARNING: THERE IS ZERO MOMENT EVERYWHERE IN THE MODEL BASED ON THE DEFAULT 
             CRITERION. PLEASE CHECK THE VALUE OF THE AVERAGE MOMENT DURING THE 
             CURRENT ITERATION TO VERIFY THAT THE MOMENT IS SMALL ENOUGH TO BE 
             TREATED AS ZERO. IF NOT, PLEASE USE THE SOLUTION CONTROLS TO RESET 
             THE CRITERION FOR ZERO MOMENT.
          TIME INCREMENT MAY NOW INCREASE TO    2.563E-02

 ITERATION SUMMARY FOR THE INCREMENT:   3 TOTAL ITERATIONS, OF WHICH
   0 ARE SEVERE DISCONTINUITY ITERATIONS AND  3 ARE EQUILIBRIUM ITERATIONS.

 TIME INCREMENT COMPLETED  1.709E-02,  FRACTION OF STEP COMPLETED  5.026E-02
 STEP TIME COMPLETED       5.026E-02,  TOTAL TIME COMPLETED        5.026E-02


  INCREMENT    10 STARTS. ATTEMPT NUMBER  1, TIME INCREMENT  2.563E-02

 ==> quasi-Newton: performing full factorization

  USING THE DIRECT SOLVER WITH   5 PROCESSORS

     CHECK POINT   START OF SOLVER    

  NUMBER OF EQUATIONS =     34476     NUMBER OF RHS =    1
  NUMBER OF FLOATING PT. OPERATIONS =  7.83E+08

     CHECK POINT  END OF SOLVER       

       ELAPSED USER TIME (SEC)      =  0.50000    
       ELAPSED SYSTEM TIME (SEC)    =  0.10000    
       ELAPSED TOTAL CPU TIME (SEC) =  0.60000    
       ELAPSED WALLCLOCK TIME (SEC) =          0

                   37 SEVERE DISCONTINUITIES OCCURRED DURING THIS ITERATION.
                   37 POINTS CHANGED FROM OPEN TO CLOSED

               CONVERGENCE CHECKS FOR SEVERE DISCONTINUITY ITERATION     1

   MAX. PENETRATION ERROR 253.206E-06   AT NODE WAIST-UP-1.548 OF CONTACT PAIR 
   (ASSEMBLY_NDE-35-OUT_CNS_,ASSEMBLY_WAIST-MIDDLE-1_SURF-INN)
   MAX. CONTACT FORCE ERROR 81.5241E+03  AT NODE WAIST-UP-1.548 OF CONTACT PAIR 
   (ASSEMBLY_NDE-35-OUT_CNS_,ASSEMBLY_WAIST-MIDDLE-1_SURF-INN)
          PENETRATION ERROR TOO LARGE COMPARED TO DISPLACEMENT INCREMENT.

 AVERAGE FORCE                      1.268E-03   TIME AVG. FORCE       4.216E-04
 LARGEST RESIDUAL FORCE            -0.241       AT NODE        558   DOF  3
   INSTANCE: WAIST-UP-1                                                                      
 LARGEST INCREMENT OF DISP.         7.185E-04   AT NODE        484   DOF  3
   INSTANCE: WAIST-UP-1                                                                      
 LARGEST CORRECTION TO DISP.       -1.518E-04   AT NODE        217   DOF  3
   INSTANCE: WAIST-UP-1                                                                      
          FORCE     EQUILIBRIUM NOT ACHIEVED WITHIN TOLERANCE.

 AVERAGE MOMENT                     1.154E-07   TIME AVG. MOMENT      1.154E-07
 LARGEST RESIDUAL MOMENT           -1.427E-07   AT NODE        150   DOF  4
   INSTANCE: WAIST-UP-1                                                                      
 LARGEST INCREMENT OF ROTATION      4.766E-02   AT NODE        215   DOF  4
   INSTANCE: WAIST-MIDDLE-1                                                                  
 LARGEST CORRECTION TO ROTATION    -1.111E-02   AT NODE        338   DOF  4
   INSTANCE: WAIST-UP-1                                                                      
          MOMENT    EQUILIBRIUM NOT ACHIEVED WITHIN TOLERANCE.

 ==> quasi-Newton: performing full factorization

  USING THE DIRECT SOLVER WITH   5 PROCESSORS

     CHECK POINT   START OF SOLVER    

  NUMBER OF EQUATIONS =     34513     NUMBER OF RHS =    1
  NUMBER OF FLOATING PT. OPERATIONS =  8.00E+08

     CHECK POINT  END OF SOLVER       

       ELAPSED USER TIME (SEC)      =  0.50000    
       ELAPSED SYSTEM TIME (SEC)    =  0.10000    
       ELAPSED TOTAL CPU TIME (SEC) =  0.60000    
       ELAPSED WALLCLOCK TIME (SEC) =          0

                   22 SEVERE DISCONTINUITIES OCCURRED DURING THIS ITERATION.
                    1 POINTS CHANGED FROM OPEN TO CLOSED
                   21 POINTS CHANGED FROM CLOSED TO OPEN

               CONVERGENCE CHECKS FOR SEVERE DISCONTINUITY ITERATION     2

   MAX. PENETRATION ERROR 12.6724E-06  AT NODE WAIST-UP-1.315 OF CONTACT PAIR 
   (ASSEMBLY_NDE-35-OUT_CNS_,ASSEMBLY_WAIST-MIDDLE-1_SURF-INN)
   MAX. CONTACT FORCE ERROR 4.08009E+03 AT NODE WAIST-UP-1.315 OF CONTACT PAIR 
   (ASSEMBLY_NDE-35-OUT_CNS_,ASSEMBLY_WAIST-MIDDLE-1_SURF-INN)
          PENETRATION ERROR TOO LARGE COMPARED TO DISPLACEMENT INCREMENT.

 AVERAGE FORCE                      1.206E-03   TIME AVG. FORCE       4.146E-04
 LARGEST RESIDUAL FORCE            -1.024E-02   AT NODE        315   DOF  3
   INSTANCE: WAIST-UP-1                                                                      
 LARGEST INCREMENT OF DISP.         7.063E-04   AT NODE        484   DOF  3
   INSTANCE: WAIST-UP-1                                                                      
 LARGEST CORRECTION TO DISP.        2.097E-04   AT NODE        210   DOF  3
   INSTANCE: WAIST-MIDDLE-1                                                                  
          FORCE     EQUILIBRIUM NOT ACHIEVED WITHIN TOLERANCE.

 AVERAGE MOMENT                     1.200E-07   TIME AVG. MOMENT      1.200E-07
 LARGEST RESIDUAL MOMENT            4.674E-08   AT NODE        611   DOF  4
   INSTANCE: WAIST-MIDDLE-1                                                                  
 LARGEST INCREMENT OF ROTATION      4.844E-02   AT NODE        113   DOF  4
   INSTANCE: WAIST-UP-1                                                                      
 LARGEST CORRECTION TO ROTATION     2.763E-02   AT NODE        139   DOF  4
   INSTANCE: WAIST-MIDDLE-1                                                                  
          MOMENT    EQUILIBRIUM NOT ACHIEVED WITHIN TOLERANCE.

 ==> quasi-Newton: performing full factorization

  USING THE DIRECT SOLVER WITH   5 PROCESSORS

     CHECK POINT   START OF SOLVER    

  NUMBER OF EQUATIONS =     34493     NUMBER OF RHS =    1
  NUMBER OF FLOATING PT. OPERATIONS =  8.00E+08

     CHECK POINT  END OF SOLVER       

       ELAPSED USER TIME (SEC)      =  0.60000    
       ELAPSED SYSTEM TIME (SEC)    =  0.10000    
       ELAPSED TOTAL CPU TIME (SEC) =  0.70000    
       ELAPSED WALLCLOCK TIME (SEC) =          0

                   10 SEVERE DISCONTINUITIES OCCURRED DURING THIS ITERATION.
                    5 POINTS CHANGED FROM OPEN TO CLOSED
                    5 POINTS CHANGED FROM CLOSED TO OPEN

               CONVERGENCE CHECKS FOR SEVERE DISCONTINUITY ITERATION     3

   MAX. PENETRATION ERROR 45.5947E-06  AT NODE WAIST-UP-1.169 OF CONTACT PAIR 
   (ASSEMBLY_NDE-35-OUT_CNS_,ASSEMBLY_WAIST-MIDDLE-1_SURF-INN)
   MAX. CONTACT FORCE ERROR 14.6800E+03  AT NODE WAIST-UP-1.169 OF CONTACT PAIR 
   (ASSEMBLY_NDE-35-OUT_CNS_,ASSEMBLY_WAIST-MIDDLE-1_SURF-INN)
[...]

               CONVERGENCE CHECKS FOR EQUILIBRIUM ITERATION     2

   MAX. PENETRATION ERROR 370.850E-12   AT NODE WAIST-MIDDLE-1.489 OF CONTACT 
   PAIR (ASSEMBLY_NDE-12345-OUT_CNS_,ASSEMBLY_MEMBRANE-1_SURF-INN)
   MAX. CONTACT FORCE ERROR 7.30701E-03 AT NODE WAIST-MIDDLE-1.489 OF CONTACT 
   PAIR (ASSEMBLY_NDE-12345-OUT_CNS_,ASSEMBLY_MEMBRANE-1_SURF-INN)
          THE CONTACT CONSTRAINTS HAVE CONVERGED.

 AVERAGE FORCE                      3.107E-02   TIME AVG. FORCE       2.876E-02
 LARGEST RESIDUAL FORCE            -4.110E-07   AT NODE        803   DOF  2
   INSTANCE: WAIST-MIDDLE-1                                                                  
 LARGEST INCREMENT OF DISP.         1.238E-03   AT NODE        847   DOF  3
   INSTANCE: CHEST-LEFT-1                                                                    
 LARGEST CORRECTION TO DISP.       -2.679E-08   AT NODE       1252   DOF  2
   INSTANCE: MEMBRANE-1                                                                      
          THE FORCE     EQUILIBRIUM EQUATIONS HAVE CONVERGED

 AVERAGE MOMENT                     2.839E-06   TIME AVG. MOMENT      2.625E-06
 LARGEST RESIDUAL MOMENT            4.987E-10   AT NODE        282   DOF  6
   INSTANCE: WAIST-UP-1                                                                      
 LARGEST INCREMENT OF ROTATION      4.008E-02   AT NODE         65   DOF  5
   INSTANCE: CHEST-LEFT-1                                                                    
 LARGEST CORRECTION TO ROTATION    -2.422E-05   AT NODE        574   DOF  4
   INSTANCE: MEMBRANE-1                                                                      
          THE MOMENT    EQUILIBRIUM EQUATIONS HAVE CONVERGED

 ITERATION SUMMARY FOR THE INCREMENT:   4 TOTAL ITERATIONS, OF WHICH
   2 ARE SEVERE DISCONTINUITY ITERATIONS AND  2 ARE EQUILIBRIUM ITERATIONS.

 TIME INCREMENT COMPLETED  0.100    ,  FRACTION OF STEP COMPLETED  0.858    
 STEP TIME COMPLETED       0.858    ,  TOTAL TIME COMPLETED         4.86    


  INCREMENT    20 STARTS. ATTEMPT NUMBER  1, TIME INCREMENT  0.100    

  NUMBER OF EQUATIONS =     35226     NUMBER OF RHS =    1
  NUMBER OF FLOATING PT. OPERATIONS =  2.53E+09

  USING THE DIRECT SOLVER WITH   5 PROCESSORS

     CHECK POINT   START OF SOLVER    

     CHECK POINT  END OF SOLVER       

       ELAPSED USER TIME (SEC)      =  0.60000    
       ELAPSED SYSTEM TIME (SEC)    =  0.10000    
       ELAPSED TOTAL CPU TIME (SEC) =  0.70000    
       ELAPSED WALLCLOCK TIME (SEC) =          0

                   42 SEVERE DISCONTINUITIES OCCURRED DURING THIS ITERATION.
                   35 POINTS CHANGED FROM OPEN TO CLOSED
                    7 POINTS CHANGED FROM CLOSED TO OPEN

               CONVERGENCE CHECKS FOR SEVERE DISCONTINUITY ITERATION     1

   MAX. PENETRATION ERROR 50.4383E-06  AT NODE CHEST-RIGHT-1.305 OF CONTACT 
   PAIR (ASSEMBLY_NDE-12345-OUT_CNS_,ASSEMBLY_MEMBRANE-1_SURF-INN)
   MAX. CONTACT FORCE ERROR 993.809       AT NODE CHEST-RIGHT-1.305 OF CONTACT 
   PAIR (ASSEMBLY_NDE-12345-OUT_CNS_,ASSEMBLY_MEMBRANE-1_SURF-INN)
          PENETRATION ERROR TOO LARGE COMPARED TO DISPLACEMENT INCREMENT.

 AVERAGE FORCE                      3.206E-02   TIME AVG. FORCE       2.893E-02
 LARGEST RESIDUAL FORCE             4.528E-02   AT NODE        305   DOF  1
   INSTANCE: CHEST-RIGHT-1                                                                   
 LARGEST INCREMENT OF DISP.         1.180E-03   AT NODE        847   DOF  3
   INSTANCE: CHEST-LEFT-1                                                                    
 LARGEST CORRECTION TO DISP.       -6.999E-05   AT NODE       1027   DOF  3
   INSTANCE: MEMBRANE-1                                                                      
          FORCE     EQUILIBRIUM NOT ACHIEVED WITHIN TOLERANCE.

 AVERAGE MOMENT                     2.858E-06   TIME AVG. MOMENT      2.637E-06
 LARGEST RESIDUAL MOMENT            5.029E-08   AT NODE        115   DOF  5
   INSTANCE: CHEST-LEFT-1                                                                    
 LARGEST INCREMENT OF ROTATION      3.777E-02   AT NODE         65   DOF  5
   INSTANCE: CHEST-LEFT-1                                                                    
 LARGEST CORRECTION TO ROTATION     6.125E-03   AT NODE        956   DOF  5
   INSTANCE: MEMBRANE-1                                                                      
          MOMENT    EQUILIBRIUM NOT ACHIEVED WITHIN TOLERANCE.

  NUMBER OF EQUATIONS =     35254     NUMBER OF RHS =    1
  NUMBER OF FLOATING PT. OPERATIONS =  2.51E+09

  USING THE DIRECT SOLVER WITH   5 PROCESSORS

     CHECK POINT   START OF SOLVER    

     CHECK POINT  END OF SOLVER       

       ELAPSED USER TIME (SEC)      =  0.50000    
       ELAPSED SYSTEM TIME (SEC)    =  0.10000    
       ELAPSED TOTAL CPU TIME (SEC) =  0.60000    
       ELAPSED WALLCLOCK TIME (SEC) =          0

                    7 SEVERE DISCONTINUITIES OCCURRED DURING THIS ITERATION.
                    3 POINTS CHANGED FROM OPEN TO CLOSED
                    4 POINTS CHANGED FROM CLOSED TO OPEN

               CONVERGENCE CHECKS FOR SEVERE DISCONTINUITY ITERATION     2

   MAX. PENETRATION ERROR 426.505E-09   AT NODE WAIST-MIDDLE-1.726 OF CONTACT 
   PAIR (ASSEMBLY_NDE-12345-OUT_CNS_,ASSEMBLY_MEMBRANE-1_SURF-INN)
   MAX. CONTACT FORCE ERROR 8.40361     AT NODE WAIST-MIDDLE-1.726 OF CONTACT 
   PAIR (ASSEMBLY_NDE-12345-OUT_CNS_,ASSEMBLY_MEMBRANE-1_SURF-INN)
          THE ESTIMATED CONTACT FORCE ERROR IS OUTSIDE OF CONVERGENCE TOLERANCES.

 AVERAGE FORCE                      3.207E-02   TIME AVG. FORCE       2.893E-02
 LARGEST RESIDUAL FORCE             5.856E-03   AT NODE        868   DOF  1
   INSTANCE: CHEST-RIGHT-1                                                                   
 LARGEST INCREMENT OF DISP.         1.180E-03   AT NODE        847   DOF  3
   INSTANCE: CHEST-LEFT-1                                                                    
 LARGEST CORRECTION TO DISP.       -5.421E-05   AT NODE         51   DOF  1
   INSTANCE: MEMBRANE-1                                                                      
          FORCE     EQUILIBRIUM NOT ACHIEVED WITHIN TOLERANCE.

 AVERAGE MOMENT                     2.857E-06   TIME AVG. MOMENT      2.637E-06
 LARGEST RESIDUAL MOMENT           -1.663E-08   AT NODE        637   DOF  4
   INSTANCE: MEMBRANE-1                                                                      
 LARGEST INCREMENT OF ROTATION      3.759E-02   AT NODE         65   DOF  5
   INSTANCE: CHEST-LEFT-1                                                                    
 LARGEST CORRECTION TO ROTATION     7.299E-03   AT NODE       1201   DOF  5
   INSTANCE: MEMBRANE-1                                                                      
          MOMENT    EQUILIBRIUM NOT ACHIEVED WITHIN TOLERANCE.

  NUMBER OF EQUATIONS =     35253     NUMBER OF RHS =    1
  NUMBER OF FLOATING PT. OPERATIONS =  2.43E+09

  USING THE DIRECT SOLVER WITH   5 PROCESSORS

     CHECK POINT   START OF SOLVER    

     CHECK POINT  END OF SOLVER       

       ELAPSED USER TIME (SEC)      =  0.40000    
       ELAPSED SYSTEM TIME (SEC)    =   0.0000    
       ELAPSED TOTAL CPU TIME (SEC) =  0.40000    
       ELAPSED WALLCLOCK TIME (SEC) =          0

               CONVERGENCE CHECKS FOR EQUILIBRIUM ITERATION     1

   MAX. PENETRATION ERROR 12.4212E-09  AT NODE CHEST-RIGHT-1.740 OF CONTACT 
   PAIR (ASSEMBLY_NDE-12345-OUT_CNS_,ASSEMBLY_MEMBRANE-1_SURF-INN)
   MAX. CONTACT FORCE ERROR 244.741E-03   AT NODE CHEST-RIGHT-1.740 OF CONTACT 
   PAIR (ASSEMBLY_NDE-12345-OUT_CNS_,ASSEMBLY_MEMBRANE-1_SURF-INN)
          THE ESTIMATED CONTACT FORCE ERROR IS OUTSIDE OF CONVERGENCE TOLERANCES.

 AVERAGE FORCE                      3.207E-02   TIME AVG. FORCE       2.893E-02
 LARGEST RESIDUAL FORCE             1.447E-05   AT NODE        322   DOF  2
   INSTANCE: MEMBRANE-1                                                                      
 LARGEST INCREMENT OF DISP.         1.180E-03   AT NODE        847   DOF  3
   INSTANCE: CHEST-LEFT-1                                                                    
 LARGEST CORRECTION TO DISP.       -2.966E-05   AT NODE       1224   DOF  1
   INSTANCE: MEMBRANE-1                                                                      
 ESTIMATE OF DISP.    CORRECTION   -5.106E-11
 FORCE     EQUILIB. ACCEPTED BASED ON SMALL RESIDUAL AND ESTIMATED CORRECTION

 AVERAGE MOMENT                     2.856E-06   TIME AVG. MOMENT      2.637E-06
 LARGEST RESIDUAL MOMENT            1.394E-08   AT NODE         51   DOF  5
   INSTANCE: MEMBRANE-1                                                                      
 LARGEST INCREMENT OF ROTATION      3.759E-02   AT NODE         65   DOF  5
   INSTANCE: CHEST-LEFT-1                                                                    
 LARGEST CORRECTION TO ROTATION     6.928E-03   AT NODE         95   DOF  5
   INSTANCE: MEMBRANE-1                                                                      
          MOMENT    EQUILIBRIUM NOT ACHIEVED WITHIN TOLERANCE.

  NUMBER OF EQUATIONS =     35253     NUMBER OF RHS =    1
  NUMBER OF FLOATING PT. OPERATIONS =  2.43E+09

  USING THE DIRECT SOLVER WITH   5 PROCESSORS

     CHECK POINT   START OF SOLVER    

     CHECK POINT  END OF SOLVER       

       ELAPSED USER TIME (SEC)      =  0.60000    
       ELAPSED SYSTEM TIME (SEC)    =  0.10000    
       ELAPSED TOTAL CPU TIME (SEC) =  0.70000    
       ELAPSED WALLCLOCK TIME (SEC) =          0

               CONVERGENCE CHECKS FOR EQUILIBRIUM ITERATION     2

   MAX. PENETRATION ERROR 651.312E-12   AT NODE CHEST-RIGHT-1.740 OF CONTACT 
   PAIR (ASSEMBLY_NDE-12345-OUT_CNS_,ASSEMBLY_MEMBRANE-1_SURF-INN)
   MAX. CONTACT FORCE ERROR 12.8331E-03  AT NODE CHEST-RIGHT-1.740 OF CONTACT 
   PAIR (ASSEMBLY_NDE-12345-OUT_CNS_,ASSEMBLY_MEMBRANE-1_SURF-INN)
          THE CONTACT CONSTRAINTS HAVE CONVERGED.

 AVERAGE FORCE                      3.207E-02   TIME AVG. FORCE       2.893E-02
 LARGEST RESIDUAL FORCE             6.030E-07   AT NODE        740   DOF  1
   INSTANCE: CHEST-RIGHT-1                                                                   
 LARGEST INCREMENT OF DISP.         1.180E-03   AT NODE        847   DOF  3
   INSTANCE: CHEST-LEFT-1                                                                    
 LARGEST CORRECTION TO DISP.        1.140E-07   AT NODE        322   DOF  2
   INSTANCE: MEMBRANE-1                                                                      
          THE FORCE     EQUILIBRIUM EQUATIONS HAVE CONVERGED

 AVERAGE MOMENT                     2.856E-06   TIME AVG. MOMENT      2.637E-06
 LARGEST RESIDUAL MOMENT           -1.419E-09   AT NODE         51   DOF  5
   INSTANCE: MEMBRANE-1                                                                      
 LARGEST INCREMENT OF ROTATION      3.759E-02   AT NODE         65   DOF  5
   INSTANCE: CHEST-LEFT-1                                                                    
 LARGEST CORRECTION TO ROTATION    -1.243E-03   AT NODE        114   DOF  4
   INSTANCE: MEMBRANE-1                                                                      
 ESTIMATE OF ROTATION CORRECTION    1.265E-04
 MOMENT    EQUILIB. ACCEPTED BASED ON SMALL RESIDUAL AND ESTIMATED CORRECTION

 ITERATION SUMMARY FOR THE INCREMENT:   4 TOTAL ITERATIONS, OF WHICH
   2 ARE SEVERE DISCONTINUITY ITERATIONS AND  2 ARE EQUILIBRIUM ITERATIONS.

 TIME INCREMENT COMPLETED  0.100    ,  FRACTION OF STEP COMPLETED  0.958    
 STEP TIME COMPLETED       0.958    ,  TOTAL TIME COMPLETED         4.96    


  INCREMENT    21 STARTS. ATTEMPT NUMBER  1, TIME INCREMENT  4.151E-02

  NUMBER OF EQUATIONS =     35253     NUMBER OF RHS =    1
  NUMBER OF FLOATING PT. OPERATIONS =  2.43E+09

  USING THE DIRECT SOLVER WITH   5 PROCESSORS

     CHECK POINT   START OF SOLVER    

     CHECK POINT  END OF SOLVER       

       ELAPSED USER TIME (SEC)      =  0.70000    
       ELAPSED SYSTEM TIME (SEC)    =  0.10000    
       ELAPSED TOTAL CPU TIME (SEC) =  0.80000    
       ELAPSED WALLCLOCK TIME (SEC) =          0

                   18 SEVERE DISCONTINUITIES OCCURRED DURING THIS ITERATION.
                    8 POINTS CHANGED FROM OPEN TO CLOSED
                   10 POINTS CHANGED FROM CLOSED TO OPEN

               CONVERGENCE CHECKS FOR SEVERE DISCONTINUITY ITERATION     1

   MAX. PENETRATION ERROR 5.20405E-06 AT NODE CHEST-RIGHT-1.872 OF CONTACT PAIR 
   (ASSEMBLY_NDE-12345-OUT_CNS_,ASSEMBLY_MEMBRANE-1_SURF-INN)
   MAX. CONTACT FORCE ERROR 102.538       AT NODE CHEST-RIGHT-1.872 OF CONTACT 
   PAIR (ASSEMBLY_NDE-12345-OUT_CNS_,ASSEMBLY_MEMBRANE-1_SURF-INN)
          PENETRATION ERROR TOO LARGE COMPARED TO DISPLACEMENT INCREMENT.

 AVERAGE FORCE                      3.249E-02   TIME AVG. FORCE       2.910E-02
 LARGEST RESIDUAL FORCE            -5.109E-03   AT NODE        872   DOF  3
   INSTANCE: CHEST-RIGHT-1                                                                   
 LARGEST INCREMENT OF DISP.         4.741E-04   AT NODE        847   DOF  3
   INSTANCE: CHEST-LEFT-1                                                                    
 LARGEST CORRECTION TO DISP.       -2.088E-05   AT NODE       1101   DOF  3
   INSTANCE: MEMBRANE-1                                                                      
          FORCE     EQUILIBRIUM NOT ACHIEVED WITHIN TOLERANCE.

 AVERAGE MOMENT                     2.864E-06   TIME AVG. MOMENT      2.648E-06
 LARGEST RESIDUAL MOMENT           -1.234E-08   AT NODE         65   DOF  5
   INSTANCE: CHEST-LEFT-1                                                                    
 LARGEST INCREMENT OF ROTATION      1.500E-02   AT NODE         65   DOF  5
   INSTANCE: CHEST-LEFT-1                                                                    
 LARGEST CORRECTION TO ROTATION    -1.797E-03   AT NODE        162   DOF  4
   INSTANCE: MEMBRANE-1                                                                      
 ESTIMATE OF ROTATION CORRECTION    1.531E-05
 MOMENT    EQUILIB. ACCEPTED BASED ON SMALL RESIDUAL AND ESTIMATED CORRECTION

  NUMBER OF EQUATIONS =     35251     NUMBER OF RHS =    1
  NUMBER OF FLOATING PT. OPERATIONS =  2.51E+09

  USING THE DIRECT SOLVER WITH   5 PROCESSORS

     CHECK POINT   START OF SOLVER    

     CHECK POINT  END OF SOLVER       

       ELAPSED USER TIME (SEC)      =  0.60000    
       ELAPSED SYSTEM TIME (SEC)    =   0.0000    
       ELAPSED TOTAL CPU TIME (SEC) =  0.60000    
       ELAPSED WALLCLOCK TIME (SEC) =          1

               CONVERGENCE CHECKS FOR EQUILIBRIUM ITERATION     1

   MAX. PENETRATION ERROR 15.6267E-09  AT NODE CHEST-RIGHT-1.197 OF CONTACT 
   PAIR (ASSEMBLY_NDE-12345-OUT_CNS_,ASSEMBLY_MEMBRANE-1_SURF-INN)
   MAX. CONTACT FORCE ERROR 307.901E-03   AT NODE CHEST-RIGHT-1.197 OF CONTACT 
   PAIR (ASSEMBLY_NDE-12345-OUT_CNS_,ASSEMBLY_MEMBRANE-1_SURF-INN)
          THE ESTIMATED CONTACT FORCE ERROR IS OUTSIDE OF CONVERGENCE TOLERANCES.

 AVERAGE FORCE                      3.249E-02   TIME AVG. FORCE       2.910E-02
 LARGEST RESIDUAL FORCE            -1.531E-05   AT NODE        197   DOF  3
   INSTANCE: CHEST-RIGHT-1                                                                   
 LARGEST INCREMENT OF DISP.         4.742E-04   AT NODE        847   DOF  3
   INSTANCE: CHEST-LEFT-1                                                                    
 LARGEST CORRECTION TO DISP.        3.470E-06   AT NODE       1211   DOF  3
   INSTANCE: MEMBRANE-1                                                                      
          THE FORCE     EQUILIBRIUM EQUATIONS HAVE CONVERGED

 AVERAGE MOMENT                     2.864E-06   TIME AVG. MOMENT      2.648E-06
 LARGEST RESIDUAL MOMENT            1.734E-09   AT NODE        160   DOF  6
   INSTANCE: CHEST-RIGHT-1                                                                   
 LARGEST INCREMENT OF ROTATION      1.496E-02   AT NODE         65   DOF  5
   INSTANCE: CHEST-LEFT-1                                                                    
 LARGEST CORRECTION TO ROTATION    -1.251E-03   AT NODE        150   DOF  6
   INSTANCE: MEMBRANE-1                                                                      
          ROTATION CORRECTION TOO LARGE COMPARED TO ROTATION INCREMENT

  NUMBER OF EQUATIONS =     35251     NUMBER OF RHS =    1
  NUMBER OF FLOATING PT. OPERATIONS =  2.51E+09

  USING THE DIRECT SOLVER WITH   5 PROCESSORS

     CHECK POINT   START OF SOLVER    

     CHECK POINT  END OF SOLVER       

       ELAPSED USER TIME (SEC)      =  0.40000    
       ELAPSED SYSTEM TIME (SEC)    =  0.10000    
       ELAPSED TOTAL CPU TIME (SEC) =  0.50000    
       ELAPSED WALLCLOCK TIME (SEC) =          0

               CONVERGENCE CHECKS FOR EQUILIBRIUM ITERATION     2

   MAX. PENETRATION ERROR -180.564E-12   AT NODE CHEST-RIGHT-1.112 OF CONTACT 
   PAIR (ASSEMBLY_NDE-12345-OUT_CNS_,ASSEMBLY_MEMBRANE-1_SURF-INN)
   MAX. CONTACT FORCE ERROR -3.55772E-03 AT NODE CHEST-RIGHT-1.112 OF CONTACT 
   PAIR (ASSEMBLY_NDE-12345-OUT_CNS_,ASSEMBLY_MEMBRANE-1_SURF-INN)
          THE CONTACT CONSTRAINTS HAVE CONVERGED.

 AVERAGE FORCE                      3.249E-02   TIME AVG. FORCE       2.910E-02
 LARGEST RESIDUAL FORCE             1.766E-07   AT NODE        295   DOF  3
   INSTANCE: CHEST-LEFT-1                                                                    
 LARGEST INCREMENT OF DISP.         4.742E-04   AT NODE        847   DOF  3
   INSTANCE: CHEST-LEFT-1                                                                    
 LARGEST CORRECTION TO DISP.       -1.369E-08   AT NODE       1211   DOF  1
   INSTANCE: MEMBRANE-1                                                                      
          THE FORCE     EQUILIBRIUM EQUATIONS HAVE CONVERGED

 AVERAGE MOMENT                     2.864E-06   TIME AVG. MOMENT      2.648E-06
 LARGEST RESIDUAL MOMENT            5.303E-11   AT NODE       1395   DOF  5
   INSTANCE: MEMBRANE-1                                                                      
 LARGEST INCREMENT OF ROTATION      1.496E-02   AT NODE         65   DOF  5
   INSTANCE: CHEST-LEFT-1                                                                    
 LARGEST CORRECTION TO ROTATION    -5.602E-05   AT NODE        150   DOF  6
   INSTANCE: MEMBRANE-1                                                                      
          THE MOMENT    EQUILIBRIUM EQUATIONS HAVE CONVERGED

 ITERATION SUMMARY FOR THE INCREMENT:   3 TOTAL ITERATIONS, OF WHICH
   1 ARE SEVERE DISCONTINUITY ITERATIONS AND  2 ARE EQUILIBRIUM ITERATIONS.

 TIME INCREMENT COMPLETED  4.151E-02,  FRACTION OF STEP COMPLETED   1.00    
 STEP TIME COMPLETED        1.00    ,  TOTAL TIME COMPLETED         5.00    


          THE ANALYSIS HAS BEEN COMPLETED



     ANALYSIS SUMMARY:
     TOTAL OF        117  INCREMENTS
                       3  CUTBACKS IN AUTOMATIC INCREMENTATION
                     536  ITERATIONS INCLUDING CONTACT ITERATIONS IF PRESENT
                     536  PASSES THROUGH THE EQUATION SOLVER OF WHICH 
                     457  INVOLVE MATRIX DECOMPOSITION, INCLUDING
                       0  DECOMPOSITION(S) OF THE MASS MATRIX
                       1  REORDERING OF EQUATIONS TO MINIMIZE WAVEFRONT
                       1  ADDITIONAL RESIDUAL EVALUATIONS FOR LINE SEARCHES
                       0  ADDITIONAL OPERATOR EVALUATIONS FOR LINE SEARCHES
                     253  WARNING MESSAGES DURING USER INPUT PROCESSING
                      32  WARNING MESSAGES DURING ANALYSIS
                       0  ANALYSIS WARNINGS ARE NUMERICAL PROBLEM MESSAGES
                       3  ANALYSIS WARNINGS ARE NEGATIVE EIGENVALUE MESSAGES
                       0  ERROR MESSAGES



     JOB TIME SUMMARY
       USER TIME (SEC)      =   1364.0    
       SYSTEM TIME (SEC)    =   52.800    
       TOTAL CPU TIME (SEC) =   1416.8    
       WALLCLOCK TIME (SEC) =        551
